#T wB97XD/def2svpp opt=tight freq int(grid=ultrafine) scf=(verytight,qc)

Comment gs min

0 1
O          2.77110       -0.53794        1.23083
C          2.29057        0.08196        0.04056
C          2.85603        1.50184       -0.09206
C          2.39374        2.39182        1.06446
O          2.91954        1.97060        2.31542
C          4.38522        1.49682       -0.17892
O          4.81209        0.78795       -1.33926
H          2.43991       -1.45731        1.22356
H          1.19574        0.10976        0.09074
H          2.57595       -0.53895       -0.81461
H          2.45943        1.91585       -1.02939
H          1.29728        2.39157        1.13765
H          2.70552        3.43002        0.90434
H          2.88487        0.99004        2.32377
H          4.85775        1.04436        0.69984
H          4.76360        2.51982       -0.26714
H          4.83990       -0.15529       -1.10079
