  36
        -41.02864799
 C          4.1584865660        0.2648897787        0.6717794666
 C          2.8270247290       -0.0877891701        0.0011757144
 C          3.0876922816       -0.9865324582       -1.2182012485
 N          1.9699888013       -0.7239981932        0.9952220045
 C          2.0953607117        1.1939496629       -0.4666740149
 N          1.6237179170        2.0535177409        0.6028235755
 H          4.6884096318       -0.6418327201        0.9566205838
 H          3.9823029495        0.8471229563        1.5729862991
 H          4.7885070495        0.8370181286       -0.0051562797
 H          3.6841149894       -0.4635637256       -1.9621695274
 H          2.1436587553       -1.2820919960       -1.6719618490
 H          3.6221744570       -1.8865624741       -0.9176021657
 H          1.0700613126       -0.9560595170        0.5737554303
 H          2.3938469823       -1.5877033342        1.3170183952
 H          1.2184962617        0.8921844386       -1.0471330816
 H          2.7513139931        1.7763937547       -1.1184790146
 H          2.4167969610        2.4534750279        1.0946296998
 H          1.1287561029        1.4688000385        1.2712632220
 C         -3.1705329850        0.3360794400       -1.5137849401
 C         -3.0022222713       -0.0820085439       -0.0508682504
 C         -3.6980935132        0.9397966595        0.8603237805
 N         -3.5453078855       -1.4316941523        0.0952665756
 C         -1.5048386414       -0.1553753323        0.3279908117
 N         -0.7423959381       -1.1624502371       -0.3906678638
 H         -2.6394416608        1.2648303569       -1.7058362579
 H         -4.2234516011        0.4839402863       -1.7449812772
 H         -2.7883567602       -0.4384240565       -2.1746008822
 H         -3.2638774416        1.9268013059        0.7250558367
 H         -3.5867232047        0.6562830131        1.9058405185
 H         -4.7609452181        0.9940754234        0.6283206487
 H         -3.5048856454       -1.7198913420        1.0678985779
 H         -4.5177111242       -1.4525357422       -0.1925754952
 H         -1.4239991851       -0.3925735006        1.3937104353
 H         -1.0377731503        0.8174150713        0.1614282522
 H         -0.7160856618       -0.9295957141       -1.3786900452
 H         -1.2293706777       -2.0509294118       -0.3083982668
