  36
        -41.02873269
 C          2.1061032451        0.0019429952        1.1089882654
 C          2.3996420750       -0.1365899104       -0.3862716296
 C          3.5760763373       -1.1014853145       -0.5937535303
 N          1.1788153764       -0.6116322319       -1.0426930833
 C          2.7587412536        1.2369352238       -1.0074652147
 N          1.6997128050        2.2236970265       -1.0183257683
 H          1.8594964589       -0.9681673280        1.5355944947
 H          1.2602707347        0.6653012581        1.2703138601
 H          2.9746847941        0.3998747934        1.6274117975
 H          4.4737262089       -0.7166011882       -0.1170028906
 H          3.7817355982       -1.2326884649       -1.6554804580
 H          3.3476241629       -2.0752186596       -0.1625674485
 H          1.3382523052       -0.7106319347       -2.0412811557
 H          0.9318230012       -1.5266375319       -0.6779228920
 H          3.0640315343        1.0803629007       -2.0477295451
 H          3.6105111874        1.6580569283       -0.4679886186
 H          1.4207338695        2.4490776737       -0.0696027627
 H          0.8873978067        1.8356307510       -1.4863270316
 C         -3.5964738245        0.6150893341        0.8519230659
 C         -2.4291287948       -0.0719672097        0.1376765951
 C         -2.8236271536       -0.3804675089       -1.3155065056
 N         -1.2626641697        0.8003407558        0.2257066047
 C         -2.0574131262       -1.3965565517        0.8489665647
 N         -1.5141501268       -1.2490480310        2.1844485487
 H         -4.4539253006       -0.0508855762        0.9105547087
 H         -3.8910883688        1.5137687736        0.3135604071
 H         -3.3025677844        0.9073131536        1.8572308021
 H         -1.9896565511       -0.8429564620       -1.8409988031
 H         -3.0942940400        0.5363603890       -1.8375085264
 H         -3.6726201065       -1.0589788395       -1.3480083139
 H         -0.4761768145        0.3681428234       -0.2603824118
 H         -1.4605162138        1.6890375121       -0.2228271836
 H         -1.2980658140       -1.9068015375        0.2476696116
 H         -2.9368314346       -2.0430968766        0.9007392331
 H         -2.2277635298       -0.8872432330        2.8088056086
 H         -0.7728250941       -0.5554356098        2.1475862894
