  36
        -41.03014286
 C          3.8207931520        0.6904909581        0.5231767368
 C          2.6453227245       -0.1390473409       -0.0026508420
 C          3.1730203935       -1.3000795186       -0.8588516321
 N          1.8641758239       -0.5931581390        1.1441424922
 C          1.7040147985        0.7365333333       -0.8636441652
 N          0.9772311444        1.7499310633       -0.1144301627
 H          4.3737533664        1.1347768975       -0.3009317494
 H          4.4990927929        0.0624042691        1.0970379063
 H          3.4605223471        1.4807900110        1.1775540951
 H          3.7095706574       -0.9247599179       -1.7270181952
 H          2.3462328371       -1.9192876293       -1.2022678214
 H          3.8509266244       -1.9221321906       -0.2763150632
 H          1.0824399701       -1.1662352186        0.8342076336
 H          2.4393672947       -1.1612631307        1.7563815438
 H          0.9591373700        0.0837469304       -1.3288678234
 H          2.2705584077        1.2225018773       -1.6607541710
 H          1.6031922776        2.5105163313        0.1322317351
 H          0.6863737438        1.3180080340        0.7605733235
 C         -3.1568903990        1.3078345559        0.8602829929
 C         -2.6441469399        0.1401112657        0.0041279827
 C         -3.8293628306       -0.6839429708       -0.5081731881
 N         -1.8698893502        0.5852535357       -1.1509030726
 C         -1.7011336804       -0.7385141829        0.8602360459
 N         -0.9824218213       -1.7549624353        0.1073285604
 H         -3.6864989879        0.9394568072        1.7356490333
 H         -3.8373349262        1.9309077074        0.2817994771
 H         -2.3232460916        1.9241000875        1.1922361403
 H         -4.3784584126       -1.1204372056        0.3226628314
 H         -3.4797621284       -1.4799280272       -1.1614375404
 H         -4.5082139722       -0.0541720801       -1.0795398004
 H         -2.4472830618        1.1533522285       -1.7610878668
 H         -1.0834370708        1.1562803633       -0.8491655043
 H         -2.2649270314       -1.2219323336        1.6608287851
 H         -0.9511392568       -0.0885108305        1.3209761770
 H         -0.6951743452       -1.3245720380       -0.7696422559
 H         -1.6125983605       -2.5133610366       -0.1353105920
