  42
        -48.12054436
 C          2.5269963090       -1.8974876729        0.9594562404
 C          1.8381157496       -0.7584091373        0.2167084644
 C          2.7401933712        0.4350035161       -0.1430397476
 C          3.3545842742        1.0571094382        1.1157633007
 C          3.8544285362        0.0185425886       -1.1056240791
 C          1.8809324897        1.4941917323       -0.8658147644
 O          0.8286605508        2.0229258738       -0.0911576984
 H          2.9346644334       -1.5591513773        1.9079926697
 H          3.3293447714       -2.3315414999        0.3682244335
 H          1.8018443452       -2.6809475870        1.1678519423
 H          1.0164516970       -0.3927721654        0.8355668852
 H          1.4093691173       -1.1536768599       -0.7079798396
 H          2.6018016731        1.1997119332        1.8892733217
 H          3.8118345478        2.0180760135        0.8822745974
 H          4.1290506839        0.4103514126        1.5183413842
 H          3.4375133810       -0.4391809987       -1.9999154482
 H          4.5247894895       -0.6933598837       -0.6330377665
 H          4.4403269792        0.8850362114       -1.4059146103
 H          1.4026837806        1.0489732303       -1.7420394019
 H          2.5302624204        2.3107612139       -1.2135383481
 H          1.2101935093        2.4172123474        0.7017029723
 C         -2.1706593830       -2.4429326998       -1.2677440618
 C         -2.1628300448       -1.6100655102        0.0085274821
 C         -2.7592831417       -0.1975122631       -0.1174016302
 C         -2.1373014461        0.5723357350       -1.2856186857
 C         -4.2770955307       -0.2566299403       -0.2997545336
 C         -2.4681244765        0.5556896433        1.2001782762
 O         -1.1064521019        0.6542172869        1.5213413061
 H         -3.1778477270       -2.5519061790       -1.6623705619
 H         -1.7835526398       -3.4376289699       -1.0561229656
 H         -1.5440525249       -1.9952678156       -2.0345463903
 H         -1.1336712730       -1.5109940347        0.3587262981
 H         -2.7189021015       -2.1447631181        0.7825903481
 H         -2.4483317802        1.6152516955       -1.2556002062
 H         -2.4589283633        0.1530878072       -2.2352688140
 H         -1.0518801895        0.5382141531       -1.2428878509
 H         -4.7437451134       -0.7900306024        0.5255943049
 H         -4.5342411215       -0.7623216181       -1.2267077967
 H         -4.6933147758        0.7481325644       -0.3361517234
 H         -2.9276888362        0.0193156078        2.0355907280
 H         -2.9210288562        1.5577049430        1.1480745173
 H         -0.6544762995        1.1347926199        0.8081850984
