  42
        -48.12043138
 C          2.5600829959       -2.0908939717        0.9670125064
 C          2.2939936729       -1.0758426544       -0.1381722496
 C          2.7872570584        0.3543593105        0.1403550074
 C          2.2525185529        0.8859454108        1.4732971590
 C          4.3162530963        0.4160971851        0.1509734326
 C          2.2858413185        1.2601014064       -1.0065880290
 O          0.9035977776        1.2024995609       -1.2364739041
 H          2.2235620789       -3.0749127896        0.6463729310
 H          2.0239017874       -1.8328167266        1.8765098388
 H          3.6207568967       -2.1575166186        1.1957749669
 H          1.2194360554       -1.0327774644       -0.3247222412
 H          2.7682013482       -1.4235593384       -1.0593362860
 H          2.6854773684        0.3378826970        2.3057523190
 H          1.1704375565        0.7999609638        1.5294259036
 H          2.5182514052        1.9354501593        1.5891690587
 H          4.7249748036        0.0174071578       -0.7749718429
 H          4.7192835423       -0.1572721216        0.9815948753
 H          4.6519257063        1.4458092479        0.2570481047
 H          2.7500688143        0.9501794550       -1.9475669860
 H          2.5936416037        2.2978354376       -0.8015645931
 H          0.4397838998        1.3576562817       -0.3973741207
 C         -2.4595640837       -1.5683667470       -2.0480388321
 C         -1.7981051140       -0.9396113480       -0.8269509251
 C         -2.7560620618       -0.2441408354        0.1560048575
 C         -3.5909308834        0.8286099542       -0.5521950075
 C         -3.6875694577       -1.2563338161        0.8268810814
 C         -1.9173545009        0.4160997361        1.2704958284
 O         -1.0743160591        1.4581378530        0.8319644907
 H         -3.1834480205       -2.3281124863       -1.7636132170
 H         -1.6984008259       -2.0426480803       -2.6631352899
 H         -2.9597000357       -0.8188660941       -2.6550685247
 H         -1.0631698317       -0.2098745198       -1.1724355625
 H         -1.2610262597       -1.7197805989       -0.2811784390
 H         -4.0951184648        1.4628727434        0.1765015842
 H         -4.3533215864        0.3653773124       -1.1720747505
 H         -2.9682372670        1.4487692020       -1.1948586859
 H         -3.1131428174       -2.0182370977        1.3489840755
 H         -4.3190592639       -1.7444183656        0.0902869597
 H         -4.3332286255       -0.7596564611        1.5485267810
 H         -1.2538939290       -0.3250827366        1.7230840208
 H         -2.5904182843        0.7942484075        2.0539264833
 H         -1.6200746262        2.1142611548        0.3835696164
