  42
        -48.12069453
 C          2.7285907163       -1.8677169345        1.0908366651
 C          1.9261833035       -0.8745357664        0.2577030860
 C          2.6927432058        0.3852009276       -0.1823134563
 C          3.2960552173        1.1139613698        1.0237474202
 C          3.8036016715        0.0329963885       -1.1746893787
 C          1.7133168509        1.3309408852       -0.9095403780
 O          0.6934849671        1.8638620548       -0.0931327226
 H          2.1035943531       -2.7269625327        1.3225548776
 H          3.0497990411       -1.4258963100        2.0299931288
 H          3.6046693998       -2.2246705504        0.5548438839
 H          1.0533080383       -0.5693534013        0.8370633621
 H          1.5665731056       -1.3842939583       -0.6395561942
 H          3.6378116251        2.1085043406        0.7376433537
 H          4.1531814834        0.5663253812        1.4051406248
 H          2.5700167994        1.2036025008        1.8300887854
 H          4.3212892944        0.9322351978       -1.5028652396
 H          3.3915335831       -0.4636673070       -2.0502715013
 H          4.5337656017       -0.6269407484       -0.7154699907
 H          1.1960975881        0.7910928347       -1.7065397378
 H          2.2800817544        2.1539147682       -1.3688655108
 H          1.1123698647        2.3171742304        0.6476699006
 C         -1.8010291989       -2.4180172913       -0.2096827710
 C         -1.8937885199       -1.0912313439       -0.9545123900
 C         -2.7994742398       -0.0313337364       -0.3012480915
 C         -2.6013648206        1.2944195224       -1.0470931975
 C         -4.2721547244       -0.4356000254       -0.4014308093
 C         -2.4517826821        0.1651684000        1.1886158584
 O         -1.0795398140        0.2502855019        1.4684568888
 H         -2.7795355232       -2.8754834683       -0.0874129500
 H         -1.3545128028       -2.2724601918        0.7694236434
 H         -1.1738157461       -3.1088450507       -0.7699961100
 H         -2.2607579986       -1.2716755496       -1.9683195929
 H         -0.8875721421       -0.6767911639       -1.0384035673
 H         -2.8205586486        1.1674215091       -2.1052381513
 H         -1.5774449239        1.6500365091       -0.9543320621
 H         -3.2675833636        2.0581271556       -0.6502488867
 H         -4.5653182504       -0.5405146838       -1.4437348815
 H         -4.9035196647        0.3224782355        0.0577031846
 H         -4.4561475814       -1.3790679791        0.1054785264
 H         -2.8195297815       -0.6823915140        1.7730717118
 H         -2.9681632410        1.0693121816        1.5500633151
 H         -0.6738171011        0.8786021022        0.8492565581
