  42
        -48.12010500
 C          2.0534962536       -2.0068800170        0.3105709862
 C          1.8654776733       -0.7209169304       -0.4851428214
 C          2.7369569779        0.4672848995       -0.0437877096
 C          2.5917552739        0.7311953905        1.4586558129
 C          4.2079580860        0.2232330075       -0.3865185082
 C          2.2737304451        1.7152906780       -0.8285030613
 O          0.9897374499        2.1770492079       -0.4746268281
 H          1.7660561914       -1.8689073526        1.3490508750
 H          3.0846690288       -2.3489538199        0.2751011781
 H          1.4254221882       -2.7886033305       -0.1114551966
 H          0.8211040830       -0.4170553467       -0.4035841079
 H          2.0703005055       -0.9229368227       -1.5399116350
 H          3.1074987746       -0.0372553357        2.0276450542
 H          1.5445868933        0.7299710653        1.7556078507
 H          3.0366155307        1.6912701868        1.7193382595
 H          4.3341398699        0.0821943226       -1.4578807695
 H          4.5793528711       -0.6607989691        0.1239609776
 H          4.8164540568        1.0712069906       -0.0787741533
 H          2.2170038524        1.4816415400       -1.8947542985
 H          3.0086106219        2.5215868871       -0.6956015804
 H          1.0313060570        2.4847234617        0.4389933842
 C         -2.1338207763       -2.6717060989       -0.7649448396
 C         -2.0913056993       -1.6092743083        0.3265987478
 C         -2.7288059126       -0.2569657467       -0.0385228242
 C         -2.2259804852        0.2624711795       -1.3892198481
 C         -4.2543558103       -0.3656964498       -0.0780212916
 C         -2.3528507676        0.7528505636        1.0681907992
 O         -0.9707775937        0.9306922170        1.2357579611
 H         -3.1530209870       -2.8593467180       -1.0937878211
 H         -1.7282769787       -3.6052154736       -0.3800892561
 H         -1.5393297232       -2.3766947934       -1.6254949889
 H         -1.0505499370       -1.4304874124        0.6037788604
 H         -2.5998857189       -1.9931466768        1.2144542752
 H         -2.5557728182        1.2889114129       -1.5419923113
 H         -2.6222694641       -0.3416719449       -2.2008353352
 H         -1.1400370899        0.2401407029       -1.4484520179
 H         -4.6415069697       -0.7024005170        0.8812517297
 H         -4.5696804961       -1.0699818201       -0.8432412190
 H         -4.6975820321        0.6017914666       -0.3049756275
 H         -2.7205774196        0.3928483786        2.0331698729
 H         -2.8372676423        1.7181056020        0.8563077407
 H         -0.6001961023        1.2468925608        0.3969875404
