  42
        -48.12081313
 C          2.7544752222       -2.2924397875        0.2334034194
 C          2.4534594258       -1.0486775886       -0.5940817263
 C          2.7322433212        0.2950784008        0.1006550836
 C          2.0445610534        0.3751137883        1.4663120286
 C          4.2348425922        0.5227541065        0.2762567182
 C          2.1850472434        1.4163561383       -0.8108474571
 O          0.8211804330        1.3000187757       -1.1152904795
 H          2.1138726378       -2.3485543853        1.1093958153
 H          3.7914972063       -2.3083327893        0.5595708185
 H          2.5780611104       -3.1820019844       -0.3679666476
 H          1.4016804895       -1.0634416242       -0.8851306553
 H          3.0446773613       -1.0839586180       -1.5125768693
 H          2.5094306604       -0.3100478723        2.1701954069
 H          0.9887235990        0.1284234314        1.3905182088
 H          2.1305545101        1.3823155233        1.8705578637
 H          4.6622937537       -0.2230404341        0.9412326080
 H          4.4210446619        1.5050572184        0.7059413750
 H          4.7475864217        0.4661269986       -0.6815305325
 H          2.7033267919        1.3891171233       -1.7739091461
 H          2.3888332658        2.3914874295       -0.3417342652
 H          0.3183632834        1.3026647644       -0.2831447904
 C         -1.3516347918       -2.1223549103       -0.2855452430
 C         -1.9263379979       -0.8616314124       -0.9228528742
 C         -2.9080502671       -0.0610080600       -0.0477785782
 C         -3.4885816401        1.0750625554       -0.9012419402
 C         -4.0569108197       -0.9426532427        0.4484080997
 C         -2.2065021638        0.5386252402        1.1864003804
 O         -1.1977236750        1.4787959815        0.8906899928
 H         -0.7964277866       -1.8931588755        0.6201914863
 H         -0.6676520773       -2.5993457359       -0.9839410131
 H         -2.1338016859       -2.8367440518       -0.0419277385
 H         -2.4505993161       -1.1457370186       -1.8385731277
 H         -1.1030617558       -0.2046141363       -1.2099339509
 H         -4.1374161836        0.6657016505       -1.6717171982
 H         -2.6980819172        1.6338858251       -1.3994259504
 H         -4.0789053868        1.7571566250       -0.2903399970
 H         -3.7086975358       -1.6616997068        1.1850413232
 H         -4.5023327556       -1.4836816040       -0.3828960821
 H         -4.8291490610       -0.3321419475        0.9121836594
 H         -1.7139287868       -0.2477969461        1.7611088097
 H         -2.9644502365        1.0020469784        1.8345745750
 H         -1.5987341646        2.2004946956        0.3928838270
