  42
        -48.12048177
 C          2.6453744646       -1.8398856532        1.1149366373
 C          1.9112528358       -0.7853339808        0.2946589555
 C          2.7601863100        0.4236820071       -0.1353677422
 C          3.3436838667        1.1464058881        1.0838046053
 C          3.8942971220       -0.0001656824       -1.0713108436
 C          1.8571046292        1.3984080479       -0.9206441482
 O          0.7967115056        1.9483549710       -0.1717968574
 H          3.0246810353       -1.4224174558        2.0434674286
 H          3.4748567528       -2.2711561186        0.5601214739
 H          1.9560348614       -2.6426017870        1.3666671858
 H          1.0662261625       -0.4212397563        0.8821126698
 H          1.5122971428       -1.2590544671       -0.6062302275
 H          2.5847828121        1.2962363024        1.8499153111
 H          3.7544140289        2.1132091273        0.7942535107
 H          4.1484133371        0.5617833197        1.5205830441
 H          3.4996901202       -0.5229567186       -1.9396659700
 H          4.5903913437       -0.6575743042       -0.5586831876
 H          4.4466916049        0.8710545994       -1.4179497262
 H          1.3840415047        0.8744996615       -1.7551043728
 H          2.4741149131        2.2088530733       -1.3353324363
 H          1.1746257756        2.4039286399        0.5893168466
 C         -2.2256051987       -2.3086654899       -1.4707245401
 C         -2.1320838025       -1.5760113891       -0.1376581245
 C         -2.7932253351       -0.1876033365       -0.0955329760
 C         -2.2922061550        0.7085707392       -1.2315638260
 C         -4.3169021550       -0.3018736802       -0.1757038832
 C         -2.4381675915        0.4633718085        1.2600521773
 O         -1.0626515587        0.5643846547        1.5137263605
 H         -3.2601061438       -2.4375140953       -1.7791245510
 H         -1.7782139079       -3.2960632617       -1.3756791866
 H         -1.6939682261       -1.7732993689       -2.2529341395
 H         -1.0795250550       -1.4568835692        0.1259059658
 H         -2.5922169119       -2.1935626873        0.6377373764
 H         -2.6618690711        1.7238475204       -1.0976758782
 H         -2.6495244230        0.3458413098       -2.1916018674
 H         -1.2060522867        0.7418157538       -1.2579044145
 H         -4.6974056989       -0.9436342875        0.6160060345
 H         -4.6225100045       -0.7160892677       -1.1328193896
 H         -4.7756908260        0.6792402748       -0.0702869706
 H         -2.8408227082       -0.1460743638        2.0744488715
 H         -2.9090767304        1.4573751045        1.3137533612
 H         -0.6494876577        1.0667134313        0.7920928581
