  42
        -48.12023244
 C          4.2846294380       -1.5127814551        0.5450885583
 C          3.3942513872       -0.7247337572       -0.4079913008
 C          2.8910118120        0.6291916300        0.1207111873
 C          2.1612021239        0.4732831536        1.4580764145
 C          4.0456493369        1.6194513562        0.2874975151
 C          1.9171461946        1.2122877586       -0.9272519485
 O          0.8709106300        0.3534572312       -1.2926472743
 H          4.6186993048       -2.4271575230        0.0588639841
 H          3.7464547251       -1.7900489453        1.4474616391
 H          5.1656114119       -0.9411587620        0.8258543665
 H          2.5233347855       -1.3330647802       -0.6615570889
 H          3.9427852089       -0.5427550621       -1.3355715450
 H          2.8569082509        0.1874101157        2.2423871999
 H          1.3815131426       -0.2823323912        1.3979151548
 H          1.7039616266        1.4190664999        1.7449922647
 H          4.6052820292        1.7192993078       -0.6399803004
 H          4.7261621616        1.2903435162        1.0682445165
 H          3.6643617021        2.6006418399        0.5636238337
 H          2.4596058586        1.4224385378       -1.8538950436
 H          1.5125854139        2.1644489106       -0.5478297078
 H          0.4088962189        0.0673935562       -0.4855702571
 C         -3.8306125843       -2.1674205118       -0.5321032045
 C         -3.2708328705       -0.8441758268       -1.0485104048
 C         -2.9759408410        0.2241734306        0.0226123118
 C         -2.3350004129        1.4295621591       -0.6730929317
 C         -4.2660695576        0.6750718617        0.7118104452
 C         -2.0225843379       -0.3126415380        1.1078213823
 O         -0.8294340567       -0.8816847565        0.6155275666
 H         -3.1466106799       -2.6618903994        0.1544366562
 H         -4.0048377968       -2.8397395010       -1.3698051965
 H         -4.7781240922       -2.0187150689       -0.0208914014
 H         -3.9887438810       -0.4176634307       -1.7526212393
 H         -2.3546687622       -1.0360437645       -1.6143978122
 H         -3.0115496746        1.8338642653       -1.4226962451
 H         -1.4087576594        1.1469939152       -1.1668822355
 H         -2.1175947674        2.2136887707        0.0489210371
 H         -4.7298406772       -0.1416478176        1.2591018552
 H         -4.9759019079        1.0455448432       -0.0237926082
 H         -4.0554640210        1.4755756472        1.4175063596
 H         -2.5508456799       -1.0441067495        1.7344437803
 H         -1.7044002206        0.5106163285        1.7521646370
 H         -1.0620117191       -1.5928339986        0.0074148612
