  42
        -48.12013692
 C          2.7954270734       -1.3278210780        2.0224615902
 C          2.0192125697       -0.7733287360        0.8333092079
 C          2.8086972489        0.1776933625       -0.0832668137
 C          3.3366919551        1.3838873643        0.7013297505
 C          3.9761724138       -0.5464838989       -0.7572581453
 C          1.8674578057        0.6709182923       -1.2028241543
 O          0.7654976900        1.4254874705       -0.7520172063
 H          2.1492193041       -1.9855756523        2.5995130086
 H          3.1315561374       -0.5302404284        2.6791362796
 H          3.6592603441       -1.9039903587        1.7007648643
 H          1.1458741257       -0.2400852064        1.2132497338
 H          1.6620502637       -1.6107916889        0.2280033846
 H          2.5596980514        1.8114806464        1.3329221917
 H          3.7034612374        2.1509070902        0.0200066955
 H          4.1624580157        1.0870433595        1.3417970884
 H          3.6213447926       -1.4117802320       -1.3126751665
 H          4.6992417577       -0.8815971396       -0.0193742951
 H          4.4864171379        0.1193459797       -1.4504246817
 H          1.4362239795       -0.1834693351       -1.7295224245
 H          2.4468669702        1.2613343423       -1.9273711501
 H          1.0989152378        2.1862383162       -0.2623859037
 C         -1.4716565237       -1.4949286225       -1.6885134728
 C         -2.2099986250       -0.1875859111       -1.4172693672
 C         -2.9977749441       -0.1257472938       -0.0943691776
 C         -3.7079223737        1.2297650778       -0.0240954629
 C         -4.0395237073       -1.2448502442       -0.0296838870
 C         -2.0677026508       -0.2555923839        1.1289446723
 O         -1.1431841642        0.7893850126        1.2746825749
 H         -0.7426204141       -1.7065418465       -0.9106307391
 H         -0.9412717026       -1.4207565634       -2.6361163794
 H         -2.1607259062       -2.3328712909       -1.7549169381
 H         -2.9151094766       -0.0137166304       -2.2342293724
 H         -1.4872413081        0.6310729141       -1.4384164991
 H         -4.3662695183        1.3632994194       -0.8796334423
 H         -2.9784690779        2.0359879911       -0.0149997607
 H         -4.3016875857        1.2997297472        0.8844636829
 H         -3.5644126972       -2.2190463151        0.0536741930
 H         -4.6603790400       -1.2352862670       -0.9227884068
 H         -4.6838160373       -1.1107434904        0.8364852962
 H         -1.5482974613       -1.2252876614        1.0955964210
 H         -2.6740444724       -0.2364880728        2.0395424064
 H         -0.6261142825        0.8644763222        0.4555453194
