  42
        -48.12012051
 C          2.1129897649       -2.0057256695        0.3949315835
 C          1.8658137327       -0.7442246744       -0.4235046076
 C          2.7344732580        0.4698038237       -0.0524864981
 C          2.6428669664        0.7757516723        1.4461608661
 C          4.1948773811        0.2380920190       -0.4454576057
 C          2.2216370339        1.6870866935       -0.8545515185
 O          0.9497551832        2.1479734404       -0.4574452999
 H          1.4828637271       -2.8094307140        0.0197606963
 H          1.8668640700       -1.8465062887        1.4409358894
 H          3.1481150934       -2.3298376672        0.3237090412
 H          0.8209327113       -0.4567814081       -0.3011949060
 H          2.0264921835       -0.9702722871       -1.4810064777
 H          3.1920513646        0.0320068158        2.0166409959
 H          1.6078054162        0.7667732770        1.7828249744
 H          3.0819071993        1.7495704379        1.6619845474
 H          4.2813941559        0.0652503042       -1.5160847914
 H          4.6008550233       -0.6233828505        0.0770525870
 H          4.8006222704        1.1047180152       -0.1883614563
 H          2.1193458992        1.4187875109       -1.9091689367
 H          2.9521605600        2.5047573509       -0.7810531615
 H          1.0293917402        2.4880443228        0.4419431415
 C         -2.1537549589       -2.6433181523       -0.8460132849
 C         -2.1094579006       -1.6189707944        0.2813610309
 C         -2.7269901730       -0.2474247353       -0.0442188468
 C         -2.2080623189        0.3091205689       -1.3738458318
 C         -4.2534839777       -0.3359270133       -0.0976003582
 C         -2.3468980035        0.7216854713        1.0969542584
 O         -0.9642669602        0.8778205137        1.2796522434
 H         -3.1716951086       -2.8062131592       -1.1916879745
 H         -1.7642774939       -3.5945942650       -0.4890834783
 H         -1.5461251425       -2.3270679011       -1.6896623062
 H         -1.0694426099       -1.4628821705        0.5749440189
 H         -2.6315642945       -2.0262800646        1.1507564585
 H         -2.5268844687        1.3429816517       -1.4966284582
 H         -2.6034571009       -0.2652218977       -2.2072007010
 H         -1.1220051475        0.2786906232       -1.4247721330
 H         -4.6514362070       -0.6986949870        0.8476662130
 H         -4.5717824311       -1.0112786435       -0.8872937736
 H         -4.6834776641        0.6437144786       -0.2960177613
 H         -2.7261234931        0.3355531406        2.0473106779
 H         -2.8184886946        1.6989228412        0.9124214988
 H         -0.5839721548        1.2136514637        0.4524581155
