  42
        -48.12088017
 C          2.7578447675       -2.3163759524        0.0173909783
 C          2.4757273034       -1.0101024463       -0.7149839320
 C          2.7097628963        0.2729360819        0.1007051863
 C          1.9629638989        0.2324844765        1.4366165042
 C          4.2008127413        0.4969881892        0.3587866398
 C          2.1880203261        1.4619101616       -0.7371913313
 O          0.8314269851        1.3724086329       -1.0814122859
 H          2.6167656064       -3.1536280241       -0.6633247105
 H          2.0832153585       -2.4510019002        0.8584801357
 H          3.7811904215       -2.3509515201        0.3828646536
 H          1.4367171344       -1.0092108061       -1.0499341978
 H          3.1042384384       -0.9630038152       -1.6078438608
 H          2.4120144682       -0.4976268374        2.1047470794
 H          0.9178761025       -0.0284139895        1.2922023559
 H          2.0079489765        1.2061009171        1.9217097272
 H          4.6109900182       -0.3041252139        0.9679205649
 H          4.3565859330        1.4360628796        0.8860959874
 H          4.7522776076        0.5357087843       -0.5781795964
 H          2.7297454622        1.5040117766       -1.6867013315
 H          2.3820744937        2.3983833790       -0.1921265733
 H          0.3078215734        1.3581667518       -0.2623543194
 C         -1.3127682208       -2.1305438611       -0.0342791835
 C         -1.8472938635       -0.9249325715       -0.8001627478
 C         -2.8853462476       -0.0672665358       -0.0536998742
 C         -3.4174447711        0.9908165575       -1.0300534568
 C         -4.0573212864       -0.9182472570        0.4415324020
 C         -2.2631142707        0.6369098459        1.1681597495
 O         -1.2447994297        1.5617800461        0.8580102265
 H         -0.8346539874       -1.8326300507        0.8952702116
 H         -0.5704790216       -2.6439731929       -0.6411796460
 H         -2.1056537386       -2.8375590782        0.1958141887
 H         -2.3092653494       -1.2806470553       -1.7243548964
 H         -1.0103098876       -0.2832251662       -1.0821316486
 H         -4.0149320899        0.5145440004       -1.8036281760
 H         -2.5999071574        1.5157240680       -1.5214232864
 H         -4.0481244271        1.7136330892       -0.5136905109
 H         -4.8593127684       -0.2806236408        0.8080856573
 H         -3.7502664059       -1.5730645102        1.2526323215
 H         -4.4489264530       -1.5278996238       -0.3691240582
 H         -1.8002452461       -0.0949249636        1.8326781334
 H         -3.0619302065        1.1413147318        1.7308753906
 H         -1.6231455644        2.2443119772        0.2917584779
