%chk=7.chk
%nprocshared=4
%mem=8000mb
#T wB97XD/def2svpp opt=tight freq int(grid=ultrafine) scf=(verytight,qc) Volume=tight

Monomer

0 1
 C         -0.7607112983       -0.0000016817       -0.0000011556
 C          0.7607113211        0.0000019652        0.0000005070
 H         -1.1436245513       -1.0115583241       -0.1154350469
 H         -1.1436090140        0.6057544375       -0.8183157457
 H         -1.1436091092        0.4058310890        0.9337616966
 H          1.1436100126       -0.4058343688       -0.9337463432
 H          1.1436070221       -0.6057553107        0.8183338759
 H          1.1436253677        1.0115590986        0.1154092920



