  30
        -40.31327165
 C          2.1776470029        1.7212431641        0.0169976630
 C          2.6733151614        0.3764533285       -0.5177236450
 C          4.1535063002        0.1552030526       -0.2004063123
 C          1.8536071018       -0.7772700332        0.0367522322
 N          1.7075380641       -0.8024842382        1.3745401233
 O          1.4044823464       -1.6575667328       -0.6794893215
 H          2.5517377543        1.9069058297        1.0224158711
 H          1.0903228159        1.7408307184        0.0411197669
 H          2.5290978830        2.5284520585       -0.6215645971
 H          2.5388522148        0.3496407257       -1.6035278516
 H          4.7489599213        0.9612243385       -0.6237192845
 H          4.4955639207       -0.7870250448       -0.6220871463
 H          4.3166453413        0.1308235026        0.8750822583
 H          1.8599628787        0.0368672436        1.9052342093
 H          1.0427805047       -1.4577307532        1.7550249087
 C         -3.6249191632        0.9033568544        1.1740265366
 C         -3.1612759027        0.2052513072       -0.1001692579
 C         -3.2467828316        1.1492612268       -1.3028083327
 C         -1.7052963146       -0.2365788499        0.0382176525
 N         -1.3950080878       -1.3667990027       -0.6208872860
 O         -0.8853293052        0.3868620340        0.6860337116
 H         -3.6389293944        0.2043785301        2.0072355148
 H         -4.6235521991        1.3137859012        1.0437018654
 H         -2.9374893217        1.7096061539        1.4172694125
 H         -3.7863702123       -0.6744006601       -0.2872284324
 H         -4.2713427501        1.4858840941       -1.4465602876
 H         -2.9133451817        0.6527524010       -2.2121499797
 H         -2.6158824895        2.0190876193       -1.1342531231
 H         -2.0623297520       -1.8213788587       -1.2181016187
 H         -0.4197160184       -1.6544953448       -0.6849613362
