  30
        -40.31326020
 C          4.1283882265       -0.1728701834       -0.2365616964
 C          2.6407179830       -0.3353340542       -0.5539883990
 C          2.1218264563       -1.7105953415       -0.1298990111
 C          1.8502335453        0.7824423277        0.1067342472
 N          1.7286788220        0.7019594920        1.4448599253
 O          1.4028625226        1.7240496356       -0.5279097159
 H          4.7020604679       -0.9506580101       -0.7358645687
 H          4.3032715122       -0.2461514795        0.8347879814
 H          4.4861712243        0.7954980734       -0.5784054005
 H          2.4958184129       -0.2130707283       -1.6319162118
 H          2.5051230150       -1.9904670199        0.8498634064
 H          2.4456934568       -2.4668946826       -0.8411575635
 H          1.0348396726       -1.7086624131       -0.0899520704
 H          1.8749063811       -0.1803116963        1.9027058358
 H          1.0809791295        1.3341031042        1.8888263424
 C         -3.1810605952       -1.0738474614       -1.4009496943
 C         -3.1431044301       -0.2147100450       -0.1338446606
 C         -3.6202632470       -1.0093073787        1.0772186319
 C         -1.7000412011        0.2440206611        0.0685017525
 N         -1.3965012536        1.4195093947       -0.5096743419
 O         -0.8832281479       -0.4051203062        0.6946769108
 H         -4.1952171211       -1.4167802615       -1.5946656942
 H         -2.5386402592       -1.9426833234       -1.2765236064
 H         -2.8340328029       -0.5097676947       -2.2646344657
 H         -3.7821300024        0.6635456487       -0.2743506854
 H         -2.9198610656       -1.8150960925        1.2819489349
 H         -4.6054271671       -1.4317163193        0.8937161869
 H         -3.6705751440       -0.3702194707        1.9558308541
 H         -2.0584507062        1.8986553427       -1.0935893067
 H         -0.4249102695        1.7243586955       -0.5366133536
