  30
        -40.32193757
 C          4.1296766276        1.1854844133        0.3694460409
 C          3.4980112112        0.0447413083       -0.4264795598
 C          4.0607345407       -1.3063560422        0.0175239709
 C          1.9924409150        0.0395856782       -0.1837663659
 N          1.2165568891        0.0621367815       -1.2678372836
 O          1.5320131510        0.0037351711        0.9513594535
 H          3.7676894710        2.1475400056        0.0126109047
 H          5.2127657846        1.1620470869        0.2734947070
 H          3.8649633605        1.0854977684        1.4191684770
 H          3.6967641911        0.1884376156       -1.4937368527
 H          3.8222170501       -1.4740600786        1.0649875848
 H          5.1413706155       -1.3253051669       -0.1047783811
 H          3.6287324925       -2.1145350877       -0.5693350809
 H          1.6111000229        0.0905515093       -2.1909561385
 H          0.1892408557        0.0534446717       -1.1768689439
 C         -4.1287313822        1.2021092208       -0.3053318160
 C         -3.4980940163        0.0195989431        0.4280910403
 C         -4.0614977893       -1.3051557478       -0.0884065490
 C         -1.9924692416        0.0271226257        0.1858082602
 N         -1.2166922017       -0.0058842244        1.2697038327
 O         -1.5319483312        0.0499608389       -0.9496234922
 H         -5.2117959199        1.1749856665       -0.2102199289
 H         -3.8646287540        1.1580828347       -1.3590246230
 H         -3.7653462710        2.1432609565        0.1022065998
 H         -3.6971659858        0.1056261291        1.5014739192
 H         -3.8217777372       -1.4166063843       -1.1430834520
 H         -5.1423168639       -1.3295855174        0.0314043560
 H         -3.6309461124       -2.1441024970        0.4547595835
 H         -1.6114919124       -0.0244314724        2.1929670683
 H         -0.1893672997       -0.0082414942        1.1785550395
