  30
        -40.31318854
 C          4.2024035944       -0.0218099999        0.0761430667
 C          2.7660870475       -0.5058194369       -0.1319771676
 C          2.2769736009       -1.3426053314        1.0515847014
 C          1.8556119415        0.6853599408       -0.3822503456
 N          1.5962391068        1.4590455972        0.6882817843
 O          1.4326844623        0.9573150934       -1.4942741947
 H          4.8640301162       -0.8729236515        0.2219751265
 H          4.2682132534        0.6227899191        0.9502251469
 H          4.5439232369        0.5382489882       -0.7912092891
 H          2.7280750924       -1.1130487352       -1.0416759141
 H          2.7149960424       -2.3372327163        1.0108284212
 H          1.1934007814       -1.4352589428        1.0275607852
 H          2.5668782154       -0.8911779098        1.9989101323
 H          1.7373060190        1.0892516213        1.6117282756
 H          0.8749872325        2.1563640195        0.5907593534
 C         -3.2021100518       -1.7197304614        0.8587885366
 C         -3.1107870954       -0.5532598435       -0.1195255549
 C         -3.9560278433        0.6302061919        0.3591527982
 C         -1.6633748642       -0.0773460266       -0.2359312506
 N         -1.3374497655        0.4476174731       -1.4295246260
 O         -0.8795119009       -0.1177996081        0.6940340949
 H         -4.2398117726       -1.9992384505        1.0253030750
 H         -2.7534615812       -1.4345756944        1.8070318026
 H         -2.6638274362       -2.5827386071        0.4732912191
 H         -3.4647124755       -0.8714158796       -1.1060020222
 H         -4.9994234930        0.3359940745        0.4511312398
 H         -3.8892680988        1.4620319681       -0.3393086649
 H         -3.6029985236        0.9660051484        1.3315156163
 H         -1.9717076117        0.4170404001       -2.2073274401
 H         -0.3784575525        0.7452143173       -1.5998402256
