  30
        -40.32205884
 C          4.1535473300        1.1363762297       -0.6448320425
 C          3.5006204054       -0.2098758332       -0.3479546035
 C          4.0335200202       -0.7999350574        0.9607955099
 C          1.9914778515       -0.0435183769       -0.1989980090
 N          1.2506136336       -1.0670734213       -0.6269071022
 O          1.4987083523        0.9545174148        0.3119845001
 H          5.2366698662        1.0403705782       -0.6573778797
 H          3.8687835537        1.8552340156        0.1191799716
 H          3.8237263367        1.5149085123       -1.6097246459
 H          3.7056303918       -0.9075877114       -1.1670469003
 H          5.1104506178       -0.9408004837        0.8996634742
 H          3.5680464561       -1.7609214571        1.1711148033
 H          3.8170874362       -0.1237616554        1.7845966671
 H          1.6754562833       -1.8804657537       -1.0350586961
 H          0.2251028684       -1.0515582395       -0.5238605790
 C         -4.0354941132        0.8158226080       -0.9457600074
 C         -3.4998884163        0.2058600950        0.3527481818
 C         -4.1531567807       -1.1441114933        0.6311261896
 C         -1.9910558234        0.0412458581        0.1983782148
 N         -1.2502170395        1.0648513780        0.6262657973
 O         -1.4985329450       -0.9549650535       -0.3163200272
 H         -3.5694430090        1.7792311118       -1.1432990508
 H         -5.1120779097        0.9570881510       -0.8796109231
 H         -3.8223060988        0.1516038408       -1.7800688408
 H         -3.7024852433        0.8914782485        1.1825981036
 H         -5.2361913985       -1.0476410719        0.6471247557
 H         -3.8216932337       -1.5369653990        1.5896990679
 H         -3.8702598765       -1.8519341519       -0.1437986075
 H         -1.6746998221        1.8768414140        1.0375670211
 H         -0.2249744606        1.0506520328        0.5204529239
