  30
        -40.31321245
 C          2.3074856634        1.3617473173        1.0778882381
 C          2.6922491935        0.6094102167       -0.1970715099
 C          4.1802793232        0.2535908633       -0.2127455967
 C          1.8655846772       -0.6543267929       -0.3719950980
 N          1.8103471451       -1.4716011000        0.6959528688
 O          1.3355427378       -0.9408090257       -1.4334338998
 H          2.7693667156        0.9114313878        1.9548992716
 H          1.2277773542        1.3542931289        1.2101284061
 H          2.6465361193        2.3934202016        1.0181226509
 H          2.4725412927        1.2378932440       -1.0657840166
 H          4.7795639735        1.1571322378       -0.1237635657
 H          4.4416097287       -0.2459192358       -1.1426907215
 H          4.4253360426       -0.4087039958        0.6150182937
 H          2.0284984773       -1.1098909665        1.6075381300
 H          1.1485996403       -2.2311952784        0.6622042188
 C         -3.2897974973        1.7306104348       -0.3903136685
 C         -3.0238870734        0.4890237463        0.4621072650
 C         -4.0937144713       -0.5793517213        0.2403133695
 C         -1.6239216879       -0.0534974873        0.1807134308
 N         -1.4268855950       -0.5511371517       -1.0497511203
 O         -0.7497507121       -0.0447481683        1.0293864499
 H         -4.2462661947        2.1718302200       -0.1176681887
 H         -3.3194989109        1.4827435977       -1.4496790390
 H         -2.5105937701        2.4731104549       -0.2329141350
 H         -3.0304048417        0.7806191416        1.5171865578
 H         -3.8729877112       -1.4667294777        0.8290966908
 H         -4.1558590476       -0.8678879623       -0.8069334584
 H         -5.0663175622       -0.1977347934        0.5443634198
 H         -2.1309534977       -0.4767457885       -1.7610201788
 H         -0.4880336481       -0.8270941878       -1.3287187668
