  30
        -40.32056956
 C          4.1516035122        0.8896104481        0.8006445638
 C          3.5237384203        0.0762370120       -0.3312791373
 C          4.0035102435       -1.3753426791       -0.3076677485
 C          2.0007843476        0.1384045866       -0.2668316480
 N          1.4292349460       -0.3388953484        0.8369784575
 O          1.3493009091        0.6045448743       -1.1952194553
 H          3.7773552924        1.9108186021        0.7884499552
 H          5.2326475914        0.9174661941        0.6813726754
 H          3.9292538632        0.4530363016        1.7724324433
 H          3.8077434048        0.5256054323       -1.2880294458
 H          5.0818347432       -1.4121550292       -0.4468133426
 H          3.5334402694       -1.9439842270       -1.1066883423
 H          3.7665072827       -1.8537605226        0.6405797138
 H          1.9814698500       -0.7151110655        1.5858298853
 H          0.4045329747       -0.3227270722        0.9438657378
 C         -4.1983171273        0.0312862081       -1.1569785076
 C         -3.5137374993        0.2445236295        0.1932868514
 C         -4.0196363138       -0.7684936410        1.2188765575
 C         -1.9867554383        0.1759259686        0.1167855904
 N         -1.4131202968        0.6444112732       -0.9908483855
 O         -1.3252743012       -0.2617389450        1.0519499728
 H         -3.8297005233       -0.8747314666       -1.6337224940
 H         -4.0473424277        0.8716553880       -1.8316775747
 H         -5.2702755768       -0.0767580640       -1.0052146289
 H         -3.7496709036        1.2533085116        0.5568400180
 H         -3.8685767216       -1.7806449777        0.8501979894
 H         -5.0791480520       -0.6198254825        1.4128992399
 H         -3.4695776599       -0.6605458421        2.1495133118
 H         -1.9566088637        1.0061921366       -1.7522470136
 H         -0.3867352203        0.6400387988       -1.0848644284
