  30
        -40.31325176
 C          4.0514042842        0.7005033964       -0.3218543047
 C          3.0680923274       -0.4586423445       -0.4832690013
 C          3.4654220270       -1.6521042810        0.3857889195
 C          1.6414728508       -0.0102822009       -0.1706070542
 N          1.4326585770        0.4440479139        1.0746668397
 O          0.7597006225       -0.0420667905       -1.0107785141
 H          5.0471635470        0.3882344548       -0.6299181317
 H          4.1040422879        1.0328270912        0.7128969171
 H          3.7490333883        1.5437802243       -0.9385994349
 H          3.0644766824       -0.7738514592       -1.5315404244
 H          2.7368703749       -2.4537787591        0.2871178468
 H          3.5309408344       -1.3736034289        1.4358900083
 H          4.4372914612       -2.0301900455        0.0752630617
 H          2.1478075019        0.3879227354        1.7764808347
 H          0.4847351219        0.6710639089        1.3696310041
 C         -4.2533795063       -0.0780376032        0.1425689696
 C         -2.8057216057       -0.5717519845        0.1714622211
 C         -2.4399325305       -1.3191101301       -1.1123744759
 C         -1.8683546092        0.5999410250        0.4136629170
 N         -1.7200985501        1.4534221502       -0.6164971182
 O         -1.3283542055        0.7872987603        1.4921253448
 H         -4.9299350492       -0.9182107680        0.0019555167
 H         -4.4028327212        0.6280200718       -0.6716558161
 H         -4.5046483856        0.4167190201        1.0778166742
 H         -2.6799260700       -1.2430057185        1.0266453776
 H         -2.8208931402       -0.8013153125       -1.9909646136
 H         -2.8752216938       -2.3156988610       -1.1003166471
 H         -1.3596938260       -1.4091892387       -1.2038059865
 H         -1.9585643534        1.1528881521       -1.5451325365
 H         -0.9859314842        2.1404829571       -0.5453778738
