  30
        -40.31324001
 C          4.0190373923        0.7202242139       -0.3907499656
 C          3.0619054137       -0.4680240003       -0.4874245280
 C          3.5090023052       -1.6184700944        0.4144161734
 C          1.6338237185       -0.0335229927       -0.1619264152
 N          1.4320905139        0.4205461480        1.0846664021
 O          0.7461374086       -0.0696503257       -0.9956933829
 H          5.0182660516        0.4191139595       -0.6986748778
 H          4.0751283869        1.0983664915        0.6279931901
 H          3.6876953993        1.5280260326       -1.0392706482
 H          3.0430298399       -0.8210148639       -1.5233867373
 H          3.6062798971       -1.2972915035        1.4497778781
 H          4.4766284172       -1.9922796798        0.0858487211
 H          2.7924993338       -2.4358714605        0.3729448946
 H          2.1530150604        0.3673833899        1.7807822087
 H          0.4847074556        0.6395834224        1.3870395285
 C         -4.2483596124       -0.0810447454        0.1509927543
 C         -2.7994250018       -0.5723322811        0.1490338341
 C         -2.4439365791       -1.2716288739       -1.1642410997
 C         -1.8644685367        0.5930147851        0.4273146414
 N         -1.7144245536        1.4762038296       -0.5774358786
 O         -1.3291370764        0.7517439277        1.5126508203
 H         -4.9243403797       -0.9167692752       -0.0163495798
 H         -4.4056133668        0.6554000279       -0.6343933542
 H         -4.4929284327        0.3769114847        1.1065519967
 H         -2.6649226430       -1.2739801287        0.9780714306
 H         -2.8330637649       -0.7226747092       -2.0201181163
 H         -2.8785166301       -2.2683757177       -1.1847785613
 H         -1.3643982169       -1.3572569597       -1.2670857175
 H         -1.9486855256        1.2026438427       -1.5153779689
 H         -0.9854907605        2.1658415778       -0.4820248328
