  30
        -40.31324812
 C          2.5187660731        1.3402382768        1.0858416896
 C          2.8604067526        0.5565941408       -0.1830378841
 C          4.2855960331        0.0030234610       -0.1364456904
 C          1.8730607378       -0.5767078990       -0.4103192148
 N          1.6913282750       -1.4119745946        0.6289325883
 O          1.3212926653       -0.7501599568       -1.4852210862
 H          3.0016822188        2.3144733305        1.0634610410
 H          2.8655759445        0.8183270837        1.9759983796
 H          1.4434322477        1.4843551967        1.1656685216
 H          2.7679666758        1.2183121915       -1.0498314583
 H          4.4010100512       -0.6943911110        0.6906223029
 H          4.9962278488        0.8163010319       -0.0062081797
 H          4.5208702477       -0.5180218006       -1.0615026545
 H          1.9505581202       -1.1146002926        1.5530401622
 H          0.9211583123       -2.0599298845        0.5719510071
 C         -3.4935519969        1.6388196919       -0.3992811870
 C         -3.0939424074        0.4522197555        0.4778826246
 C         -4.0683226247       -0.7143292514        0.3151334609
 C         -1.6630379105        0.0084899360        0.1781305391
 N         -1.4398367352       -0.4377299947       -1.0677519150
 O         -0.7913623921        0.0332845089        1.0289478367
 H         -4.4676669755        2.0149302422       -0.0933953168
 H         -3.5558911834        1.3539336041       -1.4478280578
 H         -2.7684769519        2.4440004699       -0.3037397282
 H         -3.0997981295        0.7722541821        1.5246351135
 H         -4.1047830998       -1.0566844663       -0.7170085424
 H         -5.0698923837       -0.4053801035        0.6072614815
 H         -3.7687209725       -1.5497621098        0.9437241495
 H         -2.1457425700       -0.3713487891       -1.7780126584
 H         -0.4872093412       -0.6569015837       -1.3554246236
