  30
        -40.32230572
 C          4.0869244152        1.2600724364        0.2678078922
 C          3.5002577503        0.0166210423       -0.4008613401
 C          4.0987089953       -1.2644666659        0.1804254277
 C          1.9793583987        0.0064527206       -0.2814758410
 N          1.4770782284       -0.0400569876        0.9507036598
 O          1.2692864437        0.0402137649       -1.2807056426
 H          5.1600542492        1.3031232025        0.0941181364
 H          3.9172763600        1.2481459007        1.3426812330
 H          3.6353222294        2.1608028191       -0.1417052812
 H          3.7223799877        0.0547584742       -1.4719342964
 H          3.6561520264       -2.1389797059       -0.2910887581
 H          3.9287995783       -1.3289856949        1.2533766635
 H          5.1722481640       -1.2847998726        0.0051482653
 H          2.0783303332       -0.0661143450        1.7539705006
 H          0.4578621328       -0.0466524164        1.1022533118
 C         -4.0894610096        1.2738525414       -0.1803334255
 C         -3.5003694532       -0.0116166176        0.4009329793
 C         -4.0959639147       -1.2505757242       -0.2681274323
 C         -1.9794242663       -0.0116893917        0.2815917123
 N         -1.4769790528        0.0310682629       -0.9506509166
 O         -1.2694551115       -0.0496881442        1.2807408230
 H         -3.9197824382        1.3366476320       -1.2534220342
 H         -3.6398007730        2.1450754531        0.2905489142
 H         -5.1626933605        1.3025839560       -0.0043249377
 H         -3.7229010452       -0.0482518125        1.4719582467
 H         -3.6509540508       -2.1546614509        0.1411741796
 H         -3.9261941729       -1.2396193645       -1.3429810362
 H         -5.1693824608       -1.2858974341       -0.0944998813
 H         -2.0780417955        0.0616264681       -1.7538889794
 H         -0.4577441838        0.0342565355       -1.1021986665
