  40
        -54.26788549
 C         -3.5706363999       -1.9657854920        0.9219310905
 C         -3.9082617501       -0.4849766410        1.0545372854
 C         -3.4347535402        0.3832896791       -0.1307278160
 C         -4.0655970413       -0.0617387699       -1.4475864430
 C         -3.7967028508        1.8463492060        0.1552750773
 C         -1.9158081827        0.2826676162       -0.1742805078
 O         -1.4291084148       -0.3694293509       -1.1944752017
 O         -1.2186770028        0.7715935323        0.6999752203
 H         -4.0863257768       -2.4143024994        0.0772240072
 H         -3.8759079014       -2.4934794818        1.8229201823
 H         -2.5009428541       -2.1114328822        0.7896375696
 H         -3.4432953474       -0.0942809655        1.9623857836
 H         -4.9895185396       -0.3680162384        1.1533944404
 H         -5.1493363298       -0.0490900198       -1.3570544241
 H         -3.7442377003       -1.0619281339       -1.7199405126
 H         -3.7763438306        0.6128378738       -2.2499172016
 H         -4.8713503118        1.9452592820        0.2860889615
 H         -3.4871732942        2.4842105824       -0.6699444936
 H         -3.2982465945        2.1867789581        1.0594041481
 H         -0.4232128574       -0.4364664679       -1.1641444693
 C          3.6076431572       -1.5093722001        1.7073198430
 C          4.0104633348       -0.1547079301        1.1351340916
 C          3.4313685192        0.1292666232       -0.2618472711
 C          3.8503372551        1.5398504835       -0.7042127569
 C          3.8994181561       -0.8944709456       -1.2948919375
 C          1.9103905232        0.1332168554       -0.1937587795
 O          1.4262404856        0.8706335889        0.7718951091
 O          1.2100802339       -0.4702356679       -0.9876991622
 H          2.5249408759       -1.6112373981        1.7323308873
 H          3.9809720232       -1.6053191629        2.7244234303
 H          4.0181456599       -2.3254129594        1.1186025273
 H          5.0993106253       -0.0962973931        1.0740283280
 H          3.6684842442        0.6303800213        1.8116612434
 H          3.5118024012        2.2807404246        0.0159551645
 H          3.4231252585        1.7773130673       -1.6764229904
 H          4.9337201906        1.5940273260       -0.7806626546
 H          3.5518789138       -0.6117628309       -2.2853532314
 H          3.4990918703       -1.8793724162       -1.0731129221
 H          4.9852282287       -0.9446563369       -1.3040193860
 H          0.4183324808        0.8656882317        0.7889379212
