  40
        -54.26833751
 C         -3.6634961169        0.8978837930       -2.0490345997
 C         -4.0463764527       -0.2079910871       -1.0716955748
 C         -3.4349084701       -0.0401714533        0.3304630095
 C         -3.8850430014        1.2573315300        0.9998011363
 C         -3.8368440533       -1.2395138390        1.2025385568
 C         -1.9159654724       -0.0672708499        0.2293510846
 O         -1.4502306064       -1.0831340573       -0.4506988087
 O         -1.2009976463        0.7646008654        0.7597432363
 H         -4.0595268702        0.6704170267       -3.0362012554
 H         -2.5821544620        0.9850204799       -2.1290382137
 H         -4.0653599652        1.8581781665       -1.7370422998
 H         -3.7151900821       -1.1664756795       -1.4750198902
 H         -5.1332840826       -0.2422192236       -0.9707335673
 H         -3.5154587380        1.2987750166        2.0213000467
 H         -4.9706082618        1.3109394945        1.0160784895
 H         -3.4933759852        2.1216622639        0.4716485198
 H         -4.9179896182       -1.2647407073        1.3164926812
 H         -3.3871673224       -1.1606668799        2.1903065372
 H         -3.5104213551       -2.1697074342        0.7439784606
 H         -0.4435430864       -1.0865507944       -0.4927793652
 C          3.7037982514        1.6248054884       -1.4393107181
 C          4.0594251926        1.0390937599       -0.0772462766
 C          3.4288651034       -0.3383930816        0.1929964488
 C          3.8829553877       -1.3851707061       -0.8229782564
 C          3.8046394356       -0.7953904190        1.6108934537
 C          1.9114038637       -0.2173954023        0.1643079973
 O          1.4449268046        0.7513880365        0.9094332539
 O          1.1976279453       -0.9736481036       -0.4706036716
 H          2.6248318902        1.6847452997       -1.5639469646
 H          4.1120587236        1.0235533484       -2.2472825149
 H          4.1117218077        2.6293617580       -1.5261709540
 H          3.7235396442        1.7259260076        0.7015293317
 H          5.1442362323        0.9422711320        0.0036454540
 H          4.9686739669       -1.4290215952       -0.8526915244
 H          3.5084436271       -1.1501057762       -1.8148961390
 H          3.4987647980       -2.3642534093       -0.5480862473
 H          4.8836038258       -0.9075882406        1.6866840413
 H          3.3409551157       -1.7531634246        1.8384456558
 H          3.4751904407       -0.0650442650        2.3458397267
 H          0.4390017551        0.8033088028        0.8844688917
