  40
        -54.26795035
 C         -3.5328727754        1.2539036256       -1.8664601508
 C         -3.8894720313        1.1836862080       -0.3858209695
 C         -3.4417406755       -0.1177897426        0.3120503929
 C         -3.8164389681       -0.0346859866        1.7977266003
 C         -4.0840479379       -1.3505794572       -0.3184729683
 C         -1.9221269948       -0.1706858373        0.2261248188
 O         -1.4380265415       -1.1318606553       -0.5116652953
 O         -1.2221991271        0.6430757465        0.8069721633
 H         -4.0534061685        0.4881186051       -2.4350412389
 H         -2.4629077756        1.1267435377       -2.0152237908
 H         -3.8179783761        2.2242976782       -2.2669766834
 H         -4.9707848687        1.2811077573       -0.2686043582
 H         -3.4176186576        2.0209568575        0.1330246778
 H         -3.5227108796       -0.9446192307        2.3168313820
 H         -4.8907115440        0.0937535409        1.9037665427
 H         -3.3124898223        0.8073192965        2.2656639147
 H         -5.1665828226       -1.2466783430       -0.3050625392
 H         -3.8137543280       -2.2431427785        0.2406025362
 H         -3.7537021178       -1.4860165493       -1.3433955929
 H         -0.4305511109       -1.1136169970       -0.5556624547
 C          3.6546604689        1.7358425788       -1.3441839026
 C          4.0267574586        1.0743434337       -0.0217859045
 C          3.4254903624       -0.3299839074        0.1638709318
 C          3.8980965992       -1.3023991854       -0.9155671273
 C          3.8146812080       -0.8657773111        1.5502142806
 C          1.9057904103       -0.2388538548        0.1452519026
 O          1.4214315155        0.6712483996        0.9501394190
 O          1.2060731783       -0.9685552799       -0.5350368070
 H          4.0719056120        1.1940085696       -2.1887715278
 H          4.0421832069        2.7518453893       -1.3696874372
 H          2.5742718529        1.7816622626       -1.4623443971
 H          3.6794333011        1.7045234746        0.7987606063
 H          5.1135874676        0.9951594140        0.0507323606
 H          4.9843995972       -1.3219056338       -0.9495929218
 H          3.5160645346       -1.0143227856       -1.8904934704
 H          3.5348433541       -2.3043176435       -0.7011408940
 H          3.3715699635       -1.8452301042        1.7188056515
 H          3.4722328944       -0.1893067627        2.3294508373
 H          4.8959498369       -0.9599227748        1.6172550203
 H          0.4140680156        0.7033464688        0.9300626937
