  40
        -54.26791170
 C         -3.8620378685       -2.0183318839        0.5863954917
 C         -4.0721559491       -0.5427062958        0.9075139692
 C         -3.4146231968        0.4147756837       -0.1022364310
 C         -3.9687035160        0.2268299595       -1.5134975757
 C         -3.6419038417        1.8635059979        0.3554844154
 C         -1.9088661220        0.1892149978       -0.1057891786
 O         -1.3682015616        0.2211376239        1.0850953971
 O         -1.2648415372        0.0229822566       -1.1265630027
 H         -2.8022126547       -2.2473254478        0.4987958959
 H         -4.3529540844       -2.2945267456       -0.3429539913
 H         -4.2771727598       -2.6315243934        1.3831175998
 H         -3.6573717433       -0.3329215665        1.8949728171
 H         -5.1423689916       -0.3273024509        0.9387829829
 H         -3.5587595366        0.9817764866       -2.1796967426
 H         -5.0518853512        0.3174517947       -1.5035857636
 H         -3.6958927963       -0.7466583329       -1.9100727978
 H         -4.7071261443        2.0817024289        0.3686535961
 H         -3.1552392933        2.5594091824       -0.3249554771
 H         -3.2402474904        2.0142757937        1.3544651646
 H         -0.3703974766        0.0840037785        1.0560955618
 C          3.8560480109        1.7508021113        1.2633571368
 C          4.0061954553        0.2391139495        1.1343650178
 C          3.4185967876       -0.3417545557       -0.1614447647
 C          4.0361519424        0.2896368564       -1.4090111763
 C          3.6570006153       -1.8615263413       -0.1852621691
 C          1.9049463930       -0.1771295064       -0.1635659207
 O          1.3709378998       -0.1437392319       -1.3554675042
 O          1.2477855349       -0.1326225536        0.8626965612
 H          2.8113342874        2.0390111953        1.1768206935
 H          4.4288703345        2.2731443631        0.5016289442
 H          4.2164503054        2.0732224945        2.2375036891
 H          3.4992203758       -0.2349496016        1.9768124966
 H          5.0642390564       -0.0260450540        1.1833723241
 H          3.6913433117       -0.2246960203       -2.3017828378
 H          5.1200014364        0.2159993727       -1.3584869831
 H          3.7583234204        1.3362237584       -1.4956272815
 H          3.2202025652       -2.3304150183        0.6939235334
 H          4.7251718782       -2.0651703274       -0.1938990836
 H          3.2118004190       -2.3024097831       -1.0745047794
 H          0.3650820555       -0.0869433184       -1.3241746223
