  40
        -54.26817091
 C         -3.7786008465       -1.6738452713        1.3576975473
 C         -4.0900156099       -1.0275784448        0.0123297908
 C         -3.4253753198        0.3449026252       -0.1892038287
 C         -3.7592652965        0.8654460314       -1.5962577351
 C         -3.8809910278        1.3618342234        0.8561696874
 C         -1.9106243541        0.2002351707       -0.1396080261
 O         -1.4484944771       -0.7878722557       -0.8615585133
 O         -1.1935781004        0.9614448897        0.4858011310
 H         -4.1925978866       -1.0959462786        2.1797020583
 H         -2.7043779227       -1.7630366607        1.5032769915
 H         -4.2099265842       -2.6716338979        1.3953113907
 H         -5.1704112795       -0.9038842158       -0.0888094483
 H         -3.7509905098       -1.6911763650       -0.7848848028
 H         -3.2698740504        1.8206845079       -1.7755574931
 H         -4.8335765186        1.0047999378       -1.6907388714
 H         -3.4296665352        0.1569327049       -2.3523646509
 H         -4.9657590715        1.4315224292        0.8598705169
 H         -3.4660032998        2.3409093233        0.6307456599
 H         -3.5390743442        1.0782804440        1.8472406262
 H         -0.4436156407       -0.8521937418       -0.8235151747
 C          3.7461621143       -0.6470331148        2.1142771148
 C          4.0804981549        0.3462515332        1.0069112346
 C          3.4303826908        0.0134209411       -0.3468404148
 C          3.7868851435        1.1115886618       -1.3613252256
 C          3.8812280644       -1.3452372587       -0.8810007762
 C          1.9139269193        0.0359715145       -0.2137517123
 O          1.4526438985        1.0848649659        0.4172584202
 O          1.1954646553       -0.8267903125       -0.6872347955
 H          2.6694181134       -0.7381538300        2.2384659289
 H          4.1683455566       -0.3040007954        3.0561523600
 H          4.1544680947       -1.6310882944        1.8998613833
 H          5.1631374953        0.3830702036        0.8679122482
 H          3.7460887021        1.3395195502        1.3109521556
 H          4.8634894826        1.1363431707       -1.5123255753
 H          3.4609621323        2.0839577546       -0.9999444238
 H          3.3081165087        0.9162343917       -2.3187958394
 H          3.5241176499       -2.1495930237       -0.2445928733
 H          4.9664189446       -1.3846590282       -0.9299773287
 H          3.4776457469       -1.5077291805       -1.8771618239
 H          0.4468412188        1.0829696036        0.4782785186
