  40
        -54.26847506
 C         -3.4700975751        1.4668185471       -1.7625477523
 C         -3.9503364050        0.1517609746       -1.1584758124
 C         -3.4427626824       -0.0993880530        0.2740994039
 C         -3.9061979971        0.9880756607        1.2417407751
 C         -3.9436244721       -1.4696063460        0.7516804045
 C         -1.9212071200       -0.1528158505        0.2473463607
 O         -1.4423295852       -1.0581576093       -0.5666766899
 O         -1.2171262781        0.5722465191        0.9276544627
 H         -3.8746821087        2.3196493523       -1.2241913301
 H         -3.7934147791        1.5365359421       -2.7987637985
 H         -2.3842330657        1.5292116054       -1.7406233801
 H         -3.6107495994       -0.6729417468       -1.7878369334
 H         -5.0422353617        0.1369733602       -1.1439152369
 H         -3.4387161431        1.9396538658        1.0068420914
 H         -3.6288438597        0.7258132957        2.2597638267
 H         -4.9864071224        1.0977833439        1.1896353846
 H         -5.0306335558       -1.4731793235        0.7820333890
 H         -3.5696193920       -1.6857938362        1.7503563768
 H         -3.6083316741       -2.2535305511        0.0774389140
 H         -0.4350886703       -1.0777066271       -0.5686633298
 C          3.5514343355        1.6059127921       -1.5014627266
 C          3.9825488423        1.0706884516       -0.1403772263
 C          3.4313679900       -0.3307475906        0.1824185765
 C          3.8940875939       -1.3736050761       -0.8335034034
 C          3.8870647692       -0.7380705946        1.5908370413
 C          1.9100881259       -0.2675191687        0.2004536522
 O          1.4312252756        0.6233499953        1.0303020851
 O          1.2058203547       -0.9889171474       -0.4835592745
 H          2.4672839922        1.6060372853       -1.5915231440
 H          3.9640346536        1.0080356320       -2.3096737022
 H          3.9025741336        2.6281206441       -1.6237424736
 H          3.6394793704        1.7572343934        0.6357868800
 H          5.0729922037        1.0297635577       -0.0960081436
 H          3.5809809678       -2.3662506674       -0.5194951701
 H          4.9777327297       -1.3574630685       -0.9170628790
 H          3.4577734679       -1.1831475755       -1.8094932282
 H          4.9723917165       -0.7976519351        1.6229925939
 H          3.4797329444       -1.7113233138        1.8570781068
 H          3.5532072662       -0.0086626493        2.3244261929
 H          0.4239864926        0.6419525089        1.0334984808
