  40
        -54.26802675
 C         -3.8576728680       -2.0361669965        0.6107481184
 C         -4.0150720565       -0.5610558147        0.9623025794
 C         -3.4141253281        0.3962688902       -0.0802924744
 C         -4.0292594919        0.2005422376       -1.4647228706
 C         -3.6382327678        1.8462651097        0.3818116377
 C         -1.9026359877        0.2160064415       -0.1176144757
 O         -1.3660336893        0.3622896631       -1.2987823740
 O         -1.2500629961       -0.0011784676        0.8900351877
 H         -4.4181859025       -2.2928533403       -0.2842903473
 H         -4.2273024892       -2.6503070342        1.4287382563
 H         -2.8103319185       -2.2811081477        0.4499535489
 H         -3.5189939932       -0.3735154965        1.9163972753
 H         -5.0748079883       -0.3259387011        1.0793777550
 H         -3.6759098828        0.9687769349       -2.1471481565
 H         -5.1127585945        0.2647276307       -1.3963731049
 H         -3.7587476870       -0.7658083121       -1.8800919875
 H         -3.1891538398        2.5444412838       -0.3214772494
 H         -3.1955839473        2.0053742742        1.3626056747
 H         -4.7042942849        2.0520512776        0.4419048920
 H         -0.3610287706        0.2833868151       -1.2775857717
 C          3.8406523691        1.9261632893        0.8591298762
 C          4.0640859059        0.4235079097        0.9891890384
 C          3.4143094120       -0.4031593182       -0.1349595760
 C          3.9682540970       -0.0339630467       -1.5099987756
 C          3.6516288343       -1.8963825311        0.1360957094
 C          1.9074723885       -0.1859659456       -0.1114218246
 O          1.3644154246       -0.3865071840        1.0616234655
 O          1.2653519350        0.1208433007       -1.1003943857
 H          2.7787151766        2.1553352994        0.8030300771
 H          4.3266980606        2.3228963015       -0.0281813413
 H          4.2526965670        2.4364018050        1.7268809166
 H          3.6516536917        0.0856076945        1.9415110258
 H          5.1361715450        0.2153559716        0.9932912636
 H          3.5615762877       -0.6990822007       -2.2676944582
 H          5.0517704603       -0.1210662451       -1.5107029006
 H          3.6918663855        0.9811824277       -1.7791552444
 H          3.1705948470       -2.5039121537       -0.6278534488
 H          3.2501608197       -2.1753451285        1.1071649613
 H          4.7183901856       -2.1070061421        0.1233718248
 H          0.3660620279       -0.2484221700        1.0502800091
