  40
        -54.26820504
 C         -3.7331336222        0.6780733193       -2.1087963161
 C         -4.0752976394       -0.3292733795       -1.0166236630
 C         -3.4311417029       -0.0160798261        0.3447750236
 C         -3.8816614894        1.3363586770        0.8946835253
 C         -3.7949802149       -1.1269659379        1.3425131725
 C         -1.9142552274       -0.0396006282        0.2166645016
 O         -1.4522746275       -1.0872826179       -0.4158887858
 O         -1.1963525909        0.8216392429        0.6937013359
 H         -2.6555593504        0.7685748904       -2.2262107244
 H         -4.1403814266        1.6600535292       -1.8831731344
 H         -4.1511938207        0.3487456021       -3.0573822739
 H         -3.7414718410       -1.3191542232       -1.3321899115
 H         -5.1586997951       -0.3655240963       -0.8835827622
 H         -3.4836121370        1.4842617933        1.8953473820
 H         -4.9670174335        1.3779853272        0.9378291156
 H         -3.5186572192        2.1483214513        0.2714223571
 H         -4.8723824510       -1.1515194996        1.4877457036
 H         -3.3206938504       -0.9455335083        2.3049413310
 H         -3.4691162856       -2.0950209438        0.9697378879
 H         -0.4463206700       -1.0863539175       -0.4740681960
 C          3.7667203014        1.6550889120       -1.3841870116
 C          4.0853590799        1.0290348358       -0.0309722952
 C          3.4259771397       -0.3427338254        0.1924079661
 C          3.8811349733       -1.3726685812       -0.8403182872
 C          3.7666551030       -0.8421157987        1.6053780674
 C          1.9107768815       -0.2019322638        0.1449365344
 O          1.4479625207        0.7877408698        0.8643370337
 O          1.1942688543       -0.9660867581       -0.4774518163
 H          2.6916492813        1.7384207679       -1.5270894384
 H          4.1796729304        1.0669720342       -2.1994359219
 H          4.1943870011        2.6537349006       -1.4376090086
 H          3.7469618995        1.7026181876        0.7581149805
 H          5.1665319052        0.9104191504        0.0678717253
 H          4.9661487859       -1.4380929136       -0.8478353278
 H          3.5336575100       -1.1047193510       -1.8337831649
 H          3.4711591770       -2.3501035601       -0.5990977597
 H          4.8417712740       -0.9764352300        1.6979762180
 H          3.2812442037       -1.7963914476        1.7999736883
 H          3.4372021781       -0.1241216086        2.3525220440
 H          0.4429163602        0.8500377231        0.8278579672
