  40
        -54.26826043
 C         -3.6232996294       -2.0660286913        0.6015169608
 C         -4.0075092824       -0.9762691908       -0.3933507997
 C         -3.4336112929        0.4149396706       -0.0554784170
 C         -3.8635552568        1.4097961341       -1.1405986017
 C         -3.9009696594        0.9032014669        1.3145361088
 C         -1.9149151354        0.3058799570       -0.0756598336
 O         -1.4241321255        0.0324566858       -1.2569473953
 O         -1.2229730738        0.4477852558        0.9172142869
 H         -3.9906375063       -3.0289421771        0.2534288015
 H         -4.0531107000       -1.8742339468        1.5808779695
 H         -2.5427911226       -2.1324052269        0.7079722466
 H         -5.0957450937       -0.8954821191       -0.4382669429
 H         -3.6503045393       -1.2572762226       -1.3861944283
 H         -3.5280172028        1.0759426046       -2.1188507831
 H         -3.4407526863        2.3931825568       -0.9458829613
 H         -4.9475200653        1.4961082655       -1.1511330103
 H         -4.9849633911        0.8538413868        1.3785664897
 H         -3.5877546799        1.9326765768        1.4712964424
 H         -3.4676101691        0.3009080419        2.1073057596
 H         -0.4190290989       -0.0376730646       -1.2475000263
 C          3.9636109109        2.0122156155        0.3020245925
 C          4.1114647179        0.5792773941        0.8015321214
 C          3.3796623490       -0.4612235736       -0.0638375412
 C          3.9021221814       -0.4820732795       -1.4994182221
 C          3.5482991603       -1.8515963268        0.5684920485
 C          1.8855142993       -0.1689703720       -0.0643380930
 O          1.3848365453        0.0280793694        1.1281550830
 O          1.2133626574       -0.1554465765       -1.0804567519
 H          4.4316620305        2.6973974711        1.0052408553
 H          2.9139771418        2.2830474806        0.2119069577
 H          4.4393577802        2.1448330880       -0.6660120751
 H          3.7163952619        0.5165387355        1.8168830183
 H          5.1704865327        0.3144945372        0.8349902214
 H          3.4332870931       -1.2895017777       -2.0561534441
 H          4.9787630630       -0.6318353016       -1.5017640852
 H          3.6707394495        0.4484901717       -2.0092941996
 H          4.6014410177       -2.1219157400        0.5855478897
 H          3.0087548061       -2.6006691132       -0.0076542926
 H          3.1686886044       -1.8548583414        1.5873693321
 H          0.3931489028        0.2043493639        1.1025972826
