  40
        -54.26810946
 C         -3.7523634995       -2.0470027297       -0.4951234666
 C         -4.0487570181       -0.9070365680        0.4731304320
 C         -3.4139556670        0.4377903371        0.0693532736
 C         -3.9130954999        0.9164269136       -1.2927740669
 C         -3.7370393826        1.4871063260        1.1416626611
 C         -1.9018230173        0.2619124692        0.0329772712
 O         -1.3895040267       -0.1122185467        1.1767817160
 O         -1.2324600882        0.4561824718       -0.9664957597
 H         -2.6801176305       -2.1740398098       -0.6277247300
 H         -4.1998749753       -1.8644168088       -1.4683667509
 H         -4.1591188606       -2.9773323874       -0.1049251560
 H         -3.6739773754       -1.1748618610        1.4628638865
 H         -5.1293172486       -0.7676610572        0.5485742857
 H         -4.9997790371        0.9403013019       -1.3044050205
 H         -3.5613499585        0.2624218859       -2.0850498946
 H         -3.5382180502        1.9161564524       -1.4982645657
 H         -4.8129625191        1.6338251600        1.1997711649
 H         -3.2714877017        2.4394558610        0.8962418133
 H         -3.3735552059        1.1628461311        2.1133422677
 H         -0.3880222256       -0.2187871086        1.1320054908
 C          3.8151217717        1.9876898918        0.6343457833
 C          4.0181909870        0.5092676558        0.9466442809
 C          3.4028784575       -0.4425718038       -0.0982436402
 C          4.0005750648       -0.2296063224       -1.4863985387
 C          3.6361930967       -1.8917147904        0.3531258997
 C          1.8967183006       -0.2166706159       -0.0946729625
 O          1.3824169586        0.1321550581       -1.2417541098
 O          1.2329933755       -0.3643919017        0.9188820825
 H          2.7580118926        2.2161325234        0.5169965091
 H          4.3343024019        2.2749103170       -0.2760350084
 H          4.2041845060        2.5926851603        1.4503196864
 H          3.5608949956        0.2858081952        1.9127462189
 H          5.0866014220        0.2968034956        1.0211706752
 H          3.6143104328       -0.9712915261       -2.1810709887
 H          5.0826279770       -0.3280036189       -1.4380562585
 H          3.7513925040        0.7527020419       -1.8753733014
 H          4.7024696375       -2.0871102184        0.4358742331
 H          3.2105624717       -2.5888626749       -0.3656961289
 H          3.1703418918       -2.0640130511        1.3203603590
 H          0.3846120109        0.2705120449       -1.1911305509
