  40
        -54.26840269
 C         -3.3497992720        1.9029434815       -1.3467455942
 C         -3.8756146167        0.4879450865       -1.1316770992
 C         -3.4418918089       -0.1454303949        0.2050640616
 C         -3.9301622007        0.6663628199        1.4034705223
 C         -3.9919986132       -1.5755725394        0.2837134707
 C         -1.9213061512       -0.2250643951        0.2194987072
 O         -1.4262953233       -0.9689050056       -0.7361094730
 O         -1.2311689987        0.3508394107        1.0419344187
 H         -2.2655799010        1.9311600461       -1.2624835271
 H         -3.7686882608        2.5938927338       -0.6201927972
 H         -3.6226421660        2.2505946474       -2.3406931615
 H         -3.5178484691       -0.1516044140       -1.9409601545
 H         -4.9670762975        0.4980836436       -1.1682509474
 H         -3.7118573579        0.1367595163        2.3276759640
 H         -5.0035444541        0.8236867832        1.3350575922
 H         -3.4296439918        1.6289646119        1.4479606019
 H         -3.6712193694       -2.0576827010        1.2048677877
 H         -3.6397298309       -2.1660450933       -0.5580249264
 H         -5.0790576822       -1.5525003090        0.2666994823
 H         -0.4200742197       -1.0098787478       -0.7077048622
 C          3.4250002627        1.6669977113       -1.4498191337
 C          3.9129593706        1.1043522170       -0.1193224936
 C          3.4318632890       -0.3316057798        0.1683228563
 C          3.9153094963       -1.3164826157       -0.8946794316
 C          3.9404436339       -0.7631442549        1.5500690811
 C          1.9097380742       -0.3214152927        0.2092662844
 O          1.4155176037        0.4442379033        1.1479145966
 O          1.2178668451       -0.9640498478       -0.5605834545
 H          2.3395930751        1.6296194050       -1.5123636385
 H          3.8364686755        1.1109492813       -2.2878204726
 H          3.7354759465        2.7049602556       -1.5472961688
 H          3.5610071581        1.7476932070        0.6894955725
 H          5.0049384057        1.1098163175       -0.1028177354
 H          3.6616171530       -2.3333981681       -0.6051423552
 H          4.9939048344       -1.2432976588       -1.0080472804
 H          3.4408088216       -1.1169621031       -1.8507952117
 H          5.0278369940       -0.7718590942        1.5550400169
 H          3.5859934208       -1.7629897122        1.7919920523
 H          3.5909288758       -0.0761224466        2.3163044807
 H          0.4081753250        0.4357955116        1.1585443701
