  40
        -54.26783517
 C         -3.4698915225       -1.6672739552       -1.4418089172
 C         -3.8897945670       -0.2258243023       -1.1756117420
 C         -3.4459708483        0.3137674099        0.1988937381
 C         -3.8880542178        1.7769721164        0.3286511055
 C         -4.0274971397       -0.5097288504        1.3466266404
 C         -1.9247386610        0.2702076592        0.2499533703
 O         -1.3481656137        1.0364523283       -0.6399577163
 O         -1.3032736938       -0.4177541256        1.0404550957
 H         -2.3938366871       -1.7848201715       -1.3339312687
 H         -3.7427074921       -1.9493332769       -2.4563497787
 H         -3.9603063457       -2.3534710488       -0.7567338223
 H         -4.9773264321       -0.1483705546       -1.2390802455
 H         -3.4613387378        0.4181790581       -1.9461867264
 H         -3.5565265301        2.1930360039        1.2777473215
 H         -4.9728943399        1.8382420238        0.2850951865
 H         -3.4696468901        2.3744363377       -0.4770417901
 H         -3.6000565180       -1.5078068948        1.3611221771
 H         -5.1070333687       -0.5837763185        1.2431589115
 H         -3.7985642500       -0.0375213400        2.2989896612
 H         -0.3429435699        0.9921337012       -0.5894637721
 C          3.6452297295       -0.3648892819       -2.2478900024
 C          3.9839382907        0.4850849819       -1.0283538296
 C          3.4197502586       -0.0567635136        0.2942085141
 C          3.8843358915       -1.4856984695        0.5778066636
 C          3.8630565826        0.8627803069        1.4451755930
 C          1.8991540410        0.0200953856        0.2854146043
 O          1.3203521977       -0.7854357487        1.1364635843
 O          1.2814391695        0.8005083343       -0.4186935643
 H          2.5692300458       -0.4900428137       -2.3382496486
 H          4.1101557767       -1.3455621323       -2.1900575015
 H          4.0053674799        0.1270726710       -3.1484777448
 H          3.5823322262        1.4885801607       -1.1807881361
 H          5.0686663610        0.5659068318       -0.9329835506
 H          3.4649558337       -2.1829236754       -0.1421051941
 H          3.5672239592       -1.7944076416        1.5700683784
 H          4.9693997768       -1.5355102514        0.5247771259
 H          3.5392564103        1.8855577789        1.2639472262
 H          4.9473420061        0.8508983835        1.5273178408
 H          3.4388097912        0.5231685804        2.3873854521
 H          0.3184556913       -0.6772225276        1.1466568344
