  40
        -54.26801231
 C         -3.8025968499        0.4422344783       -2.1478687264
 C         -4.1016982794       -0.4488793383       -0.9474245369
 C         -3.4268716135        0.0112815476        0.3554455797
 C         -3.8802292128        1.4091052478        0.7743420168
 C         -3.7512229410       -0.9925647636        1.4737640192
 C         -1.9125053328       -0.0125124371        0.2011846454
 O         -1.4541495899       -1.0877397047       -0.3858931914
 O         -1.1917725568        0.8725953012        0.6279120519
 H         -4.2169615127        1.4380706531       -2.0148094595
 H         -4.2416866488        0.0107953581       -3.0445687582
 H         -2.7299598439        0.5307200548       -2.3045253720
 H         -3.7634330677       -1.4626216072       -1.1679435868
 H         -5.1806289518       -0.4824602573       -0.7812450849
 H         -3.5489691284        2.1549120767        0.0576424823
 H         -3.4536451478        1.6661774205        1.7404956134
 H         -4.9642548446        1.4425538629        0.8475790299
 H         -3.2538138555       -0.7069015840        2.3984815974
 H         -3.4243016276       -1.9916327852        1.1953870165
 H         -4.8240660658       -1.0113625183        1.6502366665
 H         -0.4490643140       -1.0845744851       -0.4589162336
 C          3.8307501373        1.6971295950       -1.3094147933
 C          4.1091874212        1.0183605744        0.0271318988
 C          3.4224427925       -0.3479800966        0.1886795177
 C          3.8809973850       -1.3499182727       -0.8699834419
 C          3.7263013630       -0.9031443686        1.5897561816
 C          1.9098592691       -0.1883179516        0.1233630821
 O          1.4506339448        0.8203092020        0.8180902762
 O          1.1906091166       -0.9600362398       -0.4866356065
 H          4.2772095139        2.6888990251       -1.3182226625
 H          2.7607068119        1.8056441781       -1.4711316146
 H          4.2507751102        1.1306473925       -2.1363181857
 H          3.7661598009        1.6705472736        0.8319356325
 H          5.1858128497        0.8767766952        0.1440353387
 H          3.4449454187       -2.3261165774       -0.6740043388
 H          4.9642999616       -1.4382879963       -0.8544832019
 H          3.5636394910       -1.0389531504       -1.8610456507
 H          3.3954306947       -0.2058158764        2.3557632599
 H          4.7968277297       -1.0605028409        1.6979228026
 H          3.2201283898       -1.8545042802        1.7408359740
 H          0.4465223602        0.8915228850        0.7708947236
