  40
        -54.26839192
 C         -3.6530863350        1.0330183760       -1.9874453375
 C         -4.0388934453       -0.1379440964       -1.0903896609
 C         -3.4362050654       -0.0646056838        0.3240120811
 C         -3.8912878380        1.1852282637        1.0755699614
 C         -3.8429310607       -1.3198494354        1.1104832846
 C         -1.9168949784       -0.0819617641        0.2255173112
 O         -1.4465434796       -1.0707823483       -0.4903999942
 O         -1.2058366216        0.7345305612        0.7841975720
 H         -4.0421896681        0.8726495226       -2.9904316916
 H         -2.5715122471        1.1284768078       -2.0541017497
 H         -4.0597476109        1.9686416207       -1.6130172399
 H         -3.7025620497       -1.0661395192       -1.5556943497
 H         -5.1262983388       -0.1815293797       -0.9988167656
 H         -3.5335491598        1.1554981766        2.1017305278
 H         -4.9768448974        1.2407781005        1.0832707416
 H         -3.4914837727        2.0824717125        0.6124601010
 H         -4.9247237922       -1.3526551058        1.2160387280
 H         -3.3992131673       -1.3080583004        2.1040044530
 H         -3.5132874585       -2.2168855732        0.5921958216
 H         -0.4397862384       -1.0710899360       -0.5284565809
 C          3.6986420839        1.6078533900       -1.4598856919
 C          4.0525533901        1.0429617055       -0.0886125763
 C          3.4293791152       -0.3349923847        0.1977459389
 C          3.8880425424       -1.3902565423       -0.8072413588
 C          3.8087283024       -0.7735531663        1.6202151508
 C          1.9116215792       -0.2178302576        0.1655196893
 O          1.4405874409        0.7354451493        0.9276961894
 O          1.2017995450       -0.9609538966       -0.4889449833
 H          2.6198201250        1.6558435432       -1.5910929945
 H          4.1166932589        0.9998929630       -2.2577487195
 H          4.0977240246        2.6149529523       -1.5577949613
 H          3.7091680083        1.7376994918        0.6798951002
 H          5.1376305220        0.9542309967       -0.0021925718
 H          3.5138867902       -2.3692467436       -0.5183664471
 H          4.9739581443       -1.4250665864       -0.8414509989
 H          3.5067183886       -1.1708712877       -1.8001261810
 H          3.4769585930       -0.0360387494        2.3468259962
 H          4.8882250737       -0.8804447958        1.6960111540
 H          3.3492977808       -1.7304531161        1.8597681875
 H          0.4345327256        0.7834746547        0.9033421604
