%nprocshared=4
%mem=8000mb
#T wB97XD/def2svpp opt=tight freq int(grid=ultrafine) scf=(verytight,qc)

dimer

0 1
 C         -3.3483035872       -0.9914781809        1.2619116398
 C         -2.7207742426       -0.1543194199        0.1497765846
 C         -3.6261029889       -0.0200173413       -1.0613242565
 C         -2.3139926546        1.2434758024        0.7058893773
 O         -1.9182729442        2.1385462575       -0.2809004447
 N         -1.4671497059       -0.8344851330       -0.2466010335
 O         -0.6761401087       -1.0856585195        0.6471779902
 O         -1.2713625090       -1.1016024452       -1.4036713641
 H         -2.6466545282       -1.1194442008        2.0830925331
 H         -3.6310321979       -1.9724401383        0.8844132415
 H         -4.2390074927       -0.4961827156        1.6373333943
 H         -3.1687147776        0.6326038287       -1.8008592772
 H         -4.5728164583        0.4160451236       -0.7560930294
 H         -3.8106149378       -0.9904374952       -1.5156976590
 H         -1.5378027271        1.0996507780        1.4699455452
 H         -3.1971996338        1.6783116682        1.1812356530
 H         -1.0132651503        1.9245721185       -0.5687617835
 C          3.6221941424        0.0162961121        1.0662529881
 C          2.7210703674        0.1544134866       -0.1475527728
 C          3.3529209338        0.9943841161       -1.2551454840
 C          2.3153675669       -1.2415125397       -0.7090403985
 O          1.9181006449       -2.1400214960        0.2739916963
 N          1.4666968095        0.8347931311        0.2462756231
 O          0.6778237517        1.0864884113       -0.6492089393
 O          1.2680289081        1.1008258290        1.4031193039
 H          3.1618867509       -0.6379379574        1.8025409463
 H          3.8058210965        0.9854167961        1.5237498312
 H          4.5696420916       -0.4196567256        0.7631364177
 H          4.2445797822        0.4995815128       -1.6289517044
 H          3.6350039542        1.9740625878       -0.8738378549
 H          2.6541416497        1.1251776227       -2.0783279327
 H          3.1992734522       -1.6747830647       -1.1845039384
 H          1.5403598245       -1.0951466640       -1.4738373519
 H          1.0132630605       -1.9259022237        0.5623004090

