  14
        -20.78736806
 C         -2.2072783997       -0.6985687897        0.2258153943
 C         -1.5355169379        0.4530187798       -0.5108998785
 C         -0.2681760645        0.9423384742        0.1988919276
 C          0.8828805772       -0.0233365583        0.0767030185
 O          2.0319414018        0.6215639506       -0.1792939168
 O          0.8381696984       -1.2180539148        0.1907431460
 H         -3.0856725868       -1.0340106787       -0.3201786502
 H         -2.5186906692       -0.3852888179        1.2201615022
 H         -1.5186256407       -1.5321947891        0.3242869558
 H         -2.2300509597        1.2925229468       -0.5877137635
 H         -1.2794790180        0.1383436242       -1.5245822809
 H         -0.4771481010        1.0697484513        1.2643463041
 H          0.0582240229        1.9017565534       -0.2036647084
 H          2.7683229617       -0.0076282685       -0.2413149042
