  14
        -20.78795935
 C         -2.0818514097       -0.3156793510        0.6190937642
 C         -1.4374785940        0.7517635909       -0.2561780671
 C         -0.2380987853        0.1996850313       -1.0365501414
 C          0.8781192842       -0.1957951487       -0.1050559469
 O          1.4055765181        0.8663546213        0.5209387179
 O          1.2777471351       -1.3129301611        0.0823974790
 H         -1.3671823777       -0.7067789648        1.3395121806
 H         -2.4362587750       -1.1445135070        0.0105228728
 H         -2.9274579758        0.0989387979        1.1627596805
 H         -1.1038040560        1.5875233649        0.3611956508
 H         -2.1719926855        1.1306423108       -0.9694532460
 H          0.1422568412        0.9701799094       -1.7091188447
 H         -0.5318570948       -0.6763883563       -1.6149286588
 H          2.1135478418        0.5862259002        1.1216962373
