  14
  -20.788514950000000        6.2393267264320783E-002 !mtd3
 C         -2.8136025137        0.2289965400        0.0002151924
 C         -1.4461753486       -0.4407338051       -0.0005830442
 C         -0.3205349765        0.5887861269        0.0002425057
 C          1.0410626492       -0.0537865904        0.0000756040
 O          2.0184855555        0.8671960314       -0.0001966983
 O          1.2710000324       -1.2318999649        0.0002259431
 H         -2.9348887733        0.8546921462       -0.8814556555
 H         -2.9342975893        0.8537257975        0.8826536459
 H         -3.6020915907       -0.5190721357        0.0000709168
 H         -1.3444363895       -1.0782118524       -0.8801652482
 H         -1.3441757818       -1.0798590135        0.8777741648
 H         -0.3841895718        1.2343068688        0.8794641131
 H         -0.3839337542        1.2355943674       -0.8780332853
 H          2.8874720399        0.4358621902       -0.0001801147
  14
  -20.788514950000000        6.2393267264320783E-002 !input
 C         -2.8136356818        0.2288920641       -0.0000152789
 C         -1.4461390079       -0.4406817832       -0.0000155638
 C         -0.3205102801        0.5888635709       -0.0000123631
 C          1.0410871123       -0.0537464152        0.0000899133
 O          2.0185427175        0.8671687355       -0.0000108328
 O          1.2708939063       -1.2319093037       -0.0000112487
 H         -3.6020539925       -0.5192559803        0.0000030929
 H         -2.9346778508        0.8540788777       -0.8820833410
 H         -2.9346630395        0.8541011962        0.8820394654
 H         -1.3442412870       -1.0789989823       -0.8789701917
 H         -1.3442473701       -1.0789710664        0.8789594163
 H         -0.3840421874        1.2350354858        0.8787183492
 H         -0.3839974708        1.2350062933       -0.8787741722
 H          2.8875354081        0.4358475205       -0.0000987023
  14
  -20.788514889999998        6.2389305935970883E-002 !mtd2
 C         -2.8136285473        0.2290109261        0.0002572802
 C         -1.4461997170       -0.4407136889       -0.0032739871
 C         -0.3205306795        0.5887556809        0.0038392317
 C          1.0410755882       -0.0537994176        0.0007823374
 O          2.0184763215        0.8672205131       -0.0025148087
 O          1.2710418798       -1.2319227114        0.0012549327
 H         -2.9355144609        0.8477813776        0.8867254389
 H         -3.6021335904       -0.5190248331       -0.0060168097
 H         -2.9336961460        0.8606459241       -0.8773509692
 H         -1.3439228505       -1.0733425930       -0.8862938443
 H         -1.3447521866       -1.0846707695        0.8715984909
 H         -0.3845653026        1.2289953698        0.8869122192
 H         -0.3835537969        1.2408190012       -0.8705453575
 H          2.8874744525        0.4359118690       -0.0041548158
  14
  -20.788475580000000        5.9847295453745605E-002 !mtd1
 C         -2.1279907080       -0.0538239359       -0.7553488760
 C         -1.5536971591       -0.1716635905        0.6509282790
 C         -0.2446628286        0.6031938276        0.7914957885
 C          0.8830205373       -0.0422485419        0.0269531901
 O          1.8109161916        0.8578068588       -0.3330994542
 O          0.9900504424       -1.2101622190       -0.2296398396
 H         -1.4332589052       -0.4680186982       -1.4817485250
 H         -2.3154984476        0.9878934577       -1.0084426422
 H         -3.0652679103       -0.5995803470       -0.8291342310
 H         -1.3637196032       -1.2217115890        0.8779460096
 H         -2.2741362856        0.2120345604        1.3755008220
 H          0.0650102359        0.6289389870        1.8399645148
 H         -0.3508891850        1.6333460838        0.4493954306
 H          2.5421583240        0.4227828360       -0.7995343935
  14
  -20.788475550000001        5.9845395580990314E-002 !mtd2
 C         -2.1298867490       -0.0554670758        0.7542957793
 C         -1.5533954360       -0.1711740690       -0.6512476664
 C         -0.2448869232        0.6050064613       -0.7890523115
 C          0.8832668219       -0.0419431579       -0.0264866237
 O          1.8130926170        0.8569376748        0.3316250497
 O          0.9892568275       -1.2099719678        0.2300122919
 H         -2.3191104768        0.9857532152        1.0081993158
 H         -1.4357466718       -0.4695847943        1.4813024937
 H         -3.0665997748       -0.6024742768        0.8260243637
 H         -2.2731351876        0.2127281329       -1.3764016020
 H         -1.3621401414       -1.2207915253       -0.8792237238
 H         -0.3518453270        1.6340590263       -0.4438351951
 H          0.0650244069        0.6343334230       -1.8373592619
 H          2.5447354916        0.4209468551        0.7965161343
  14
  -20.788475540000000        5.9844762303399669E-002 !mtd7
 C         -2.1290575994       -0.0535941163       -0.7548526031
 C         -1.5534593142       -0.1721951819        0.6508222538
 C         -0.2448935701        0.6035790691        0.7905238842
 C          0.8831159811       -0.0421666653        0.0267373055
 O          1.8115716032        0.8576837020       -0.3325574620
 O          0.9902678516       -1.2101830128       -0.2295847279
 H         -2.3196954368        0.9880179364       -1.0060310047
 H         -3.0648740457       -0.6018184147       -0.8286801019
 H         -1.4338383123       -0.4646752338       -1.4825804486
 H         -1.3623921758       -1.2222851962        0.8767653873
 H         -2.2734403936        0.2103536220        1.3764645006
 H          0.0647272417        0.6306893109        1.8389685037
 H         -0.3516240670        1.6333055180        0.4472651559
 H          2.5431722107        0.4224124095       -0.7981992470
  14
  -20.788475529999999        5.9844129032510310E-002 !mtd6
 C         -2.1278185374       -0.0478435881       -0.7560079995
 C         -1.5534662213       -0.1752264757        0.6494055375
 C         -0.2445014824        0.5988811761        0.7950950660
 C          0.8832318900       -0.0429185331        0.0275513268
 O          1.8072266650        0.8599890377       -0.3352400889
 O          0.9933069838       -1.2106097754       -0.2290290025
 H         -3.0641976975       -0.5945643388       -0.8339912052
 H         -1.4323772564       -0.4553688872       -1.4855434443
 H         -2.3170323370        0.9954240105       -1.0012746691
 H         -1.3632768537       -1.2267549443        0.8693369621
 H         -2.2738682216        0.2034774083        1.3766232132
 H          0.0645263030        0.6184408375        1.8438861870
 H         -0.3504040207        1.6309059823        0.4586129754
 H          2.5386563260        0.4271587151       -0.8034380465
  14
  -20.788475529999999        5.9844129032510310E-002 !gc
 C         -2.1290304344       -0.0501007967        0.7551666837
 C         -1.5534899902       -0.1741796029       -0.6500621871
 C         -0.2447389348        0.6008176630       -0.7927152613
 C          0.8832915435       -0.0425970335       -0.0270157254
 O          1.8094876783        0.8590264233        0.3337193033
 O          0.9922192180       -1.2103982854        0.2294924753
 H         -1.4345839635       -0.4603127934        1.4841478747
 H         -3.0659995548       -0.5961952397        0.8306989523
 H         -2.3175225500        0.9926976128        1.0031687187
 H         -2.2734740287        0.2057776403       -1.3770534815
 H         -1.3626094787       -1.2251344775       -0.8721588641
 H         -0.3512086191        1.6317173558       -0.4529839013
 H          0.0646400402        0.6241049225       -1.8413064800
 H          2.5410043294        0.4255024044        0.8011675488
  14
  -20.788475470000002        5.9840329548346879E-002 !md6
 C         -2.1301889843       -0.0549081379        0.7541776203
 C         -1.5532417998       -0.1716763534       -0.6510800261
 C         -0.2449359414        0.6048280832       -0.7890454849
 C          0.8833020273       -0.0420156152       -0.0264678628
 O          1.8129770386        0.8571023607        0.3316231018
 O          0.9895335798       -1.2100295179        0.2299311198
 H         -3.0654246029       -0.6042774644        0.8268519786
 H         -2.3222424397        0.9862482048        1.0062533841
 H         -1.4350211263       -0.4658629782        1.4819636974
 H         -2.2728370322        0.2114757356       -1.3767466085
 H         -1.3616152018       -1.2214164904       -0.8782132890
 H         -0.3520470701        1.6338198750       -0.4437735626
 H          0.0649977119        0.6341904169       -1.8373321227
 H          2.5447490440        0.4214061208        0.7966439109
  14
  -20.788028149999999        3.7275196203550118E-002 !mtd10
 C         -2.7666236794        0.2945729176       -0.0046558267
 C         -1.3530628211        0.0000374776        0.4790637916
 C         -0.3333439261        0.1560481782       -0.6575697202
 C          1.0428746445       -0.1671807716       -0.1415958295
 O          1.6267830996        0.8995870802        0.4225216593
 O          1.5745819392       -1.2433984785       -0.1831062440
 H         -2.8374231309        1.3118311402       -0.3829457007
 H         -3.4756389407        0.1811553726        0.8116773104
 H         -3.0482972103       -0.3892390176       -0.8019540858
 H         -1.3011809168       -1.0196509033        0.8657820903
 H         -1.0916248202        0.6839750426        1.2889190061
 H         -0.3464119795        1.1824705257       -1.0240268160
 H         -0.5765563933       -0.5323445787       -1.4670067836
 H          2.4970176020        0.6612986071        0.7791654130
  14
  -20.788028140000002        3.7274801761541222E-002 !mtd7
 C         -2.7664426462        0.2958076421        0.0041869732
 C         -1.3534744693       -0.0037736018       -0.4782287858
 C         -0.3332034850        0.1579205802        0.6571369823
 C          1.0429008683       -0.1666675644        0.1416162856
 O          1.6276645884        0.8996741292       -0.4224620350
 O          1.5736893010       -1.2433796290        0.1831524480
 H         -2.8354631962        1.3153337859        0.3766054788
 H         -3.0490014463       -0.3828957403        0.8054911184
 H         -3.4758588526        0.1788495508       -0.8112601229
 H         -1.0914648864        0.6748822738       -1.2923676135
 H         -1.3030292568       -1.0258592308       -0.8587896422
 H         -0.5755905807       -0.5269632122        1.4697866983
 H         -0.3465167052        1.1859759130        1.0189444128
 H          2.4977482068        0.6607649055       -0.7791509629
  14
  -20.788028120000000        3.7274012889764951E-002 !mtd3
 C         -2.7666176474        0.2953733221        0.0041663466
 C         -1.3538850368       -0.0061015522       -0.4776880120
 C         -0.3330085909        0.1604525701        0.6564004881
 C          1.0428605965       -0.1659950147        0.1414414792
 O          1.6296422832        0.8995274880       -0.4219929635
 O          1.5719832780       -1.2434711436        0.1829386358
 H         -3.4767898768        0.1720172868       -0.8096643337
 H         -2.8363374480        1.3174687421        0.3695226175
 H         -3.0476557183       -0.3779714321        0.8105712451
 H         -1.0925281137        0.6690178235       -1.2949524960
 H         -1.3034510984       -1.0298173426       -0.8537272397
 H         -0.5748535504       -0.5214203920        1.4717958466
 H         -0.3463810677        1.1898850041        1.0142599662
 H          2.4996431638        0.6594185807       -0.7779369050
  14
  -20.788028069999999        3.7272040783506113E-002 !md8
 C         -2.7667692979        0.2934809359       -0.0048541743
 C         -1.3529600074        0.0008255757        0.4792733613
 C         -0.3332997949        0.1568134100       -0.6574113849
 C          1.0428622583       -0.1670563227       -0.1416239537
 O          1.6273424620        0.8993489565        0.4224760705
 O          1.5740029696       -1.2435544141       -0.1831727197
 H         -3.4756419142        0.1807541980        0.8116782803
 H         -3.0479116251       -0.3918223660       -0.8010426670
 H         -2.8384298146        1.3100707899       -0.3847423581
 H         -1.3001432805       -1.0184867532        0.8668752249
 H         -1.0922267411        0.6856965733        1.2885730679
 H         -0.3460591647        1.1832993884       -1.0236965201
 H         -0.5767691313       -0.5313727772       -1.4669578009
 H          2.4975089251        0.6606315708        0.7790166772
  14
  -20.788027979999999        3.7268491255203526E-002 !mtd4
 C         -2.7660076673        0.2976124720       -0.0040606855
 C         -1.3528527706       -0.0001783851        0.4788697270
 C         -0.3336304156        0.1524031525       -0.6586770971
 C          1.0429231514       -0.1680239827       -0.1418540477
 O          1.6236820726        0.9001987896        0.4231229946
 O          1.5773178759       -1.2429584145       -0.1830222808
 H         -3.0490255409       -0.3840673804       -0.8026735057
 H         -2.8352011732        1.3157546546       -0.3802011897
 H         -3.4749769001        0.1837124624        0.8122023050
 H         -1.3031882063       -1.0196904532        0.8664141964
 H         -1.0890944215        0.6838017876        1.2879704673
 H         -0.3472445591        1.1776597995       -1.0284343101
 H         -0.5766781159       -0.5386862950       -1.4658729380
 H          2.4940805052        0.6641519117        0.7808210118
  14
  -20.788027970000002        3.7268096884145653E-002 !mtd8
 C         -2.7664444954        0.2954634883        0.0047366661
 C         -1.3524983403        0.0049199270       -0.4802693988
 C         -0.3338617062        0.1507195125        0.6586813235
 C          1.0430278235       -0.1685340407        0.1420315267
 O          1.6228881364        0.8995855560       -0.4236032115
 O          1.5783939134       -1.2428530812        0.1839074101
 H         -3.0486026280       -0.3946358143        0.7964071009
 H         -3.4748705327        0.1883954222       -0.8129477047
 H         -2.8376922103        1.3096859425        0.3909953074
 H         -1.0900993580        0.6958864385       -1.2837976400
 H         -1.3005600596       -1.0113505701       -0.8759162561
 H         -0.5781584310       -0.5441680419        1.4622199596
 H         -0.3468975418        1.1741016773        1.0336342286
 H          2.4935650935        0.6637791013       -0.7807898427
  14
  -20.787959350000001        3.4657852357377734E-002 !mtd3
 C         -2.0818514097       -0.3156793510        0.6190937642
 C         -1.4374785940        0.7517635909       -0.2561780671
 C         -0.2380987853        0.1996850313       -1.0365501414
 C          0.8781192842       -0.1957951487       -0.1050559469
 O          1.4055765181        0.8663546213        0.5209387179
 O          1.2777471351       -1.3129301611        0.0823974790
 H         -1.3671823777       -0.7067789648        1.3395121806
 H         -2.4362587750       -1.1445135070        0.0105228728
 H         -2.9274579758        0.0989387979        1.1627596805
 H         -1.1038040560        1.5875233649        0.3611956508
 H         -2.1719926855        1.1306423108       -0.9694532460
 H          0.1422568412        0.9701799094       -1.7091188447
 H         -0.5318570948       -0.6763883563       -1.6149286588
 H          2.1135478418        0.5862259002        1.1216962373
  14
  -20.787959340000000        3.4657485611682026E-002 !mtd4
 C         -2.0808822352       -0.3185337437        0.6180551308
 C         -1.4378602522        0.7518287575       -0.2546660453
 C         -0.2377085611        0.2031867747       -1.0363503771
 C          0.8778298257       -0.1951216436       -0.1052697086
 O          1.4076076086        0.8657184725        0.5210584372
 O          1.2749303908       -1.3132323556        0.0818524858
 H         -2.9280645695        0.0933230506        1.1613674245
 H         -1.3662373984       -0.7092294350        1.3387202812
 H         -2.4326883283       -1.1471858548        0.0077174317
 H         -1.1054219768        1.5866545812        0.3646564625
 H         -2.1728098382        1.1313495838       -0.9671537121
 H          0.1426780511        0.9763407108       -1.7058105496
 H         -0.5307518052       -0.6709729098       -1.6179755362
 H          2.1148168887        0.5839279554        1.1219403683
  14
  -20.787959319999999        3.4656752131933144E-002 !mtd2
 C         -2.0811764707       -0.3141335978        0.6203695722
 C         -1.4375913649        0.7513690422       -0.2578575111
 C         -0.2381384423        0.1978939581       -1.0370755592
 C          0.8781866215       -0.1960519290       -0.1050250460
 O          1.4041099064        0.8667996021        0.5210161900
 O          1.2787501744       -1.3127297513        0.0830364801
 H         -2.4358304701       -1.1444450957        0.0139203878
 H         -2.9265061534        0.1016630073        1.1635919216
 H         -1.3659378225       -0.7033837878        1.3412750991
 H         -1.1042427818        1.5888564571        0.3573296314
 H         -2.1724841222        1.1280345399       -0.9719241900
 H          0.1423440650        0.9671786765       -1.7109719030
 H         -0.5317548686       -0.6791845905       -1.6139868400
 H          2.1119934772        0.5875505567        1.1222816314
  14
  -20.787959290000000        3.4655651941545879E-002 !gc
 C         -2.0814645492       -0.3129710448       -0.6210794260
 C         -1.4376283551        0.7512844694        0.2584591448
 C         -0.2381802144        0.1969053990        1.0371066826
 C          0.8782309477       -0.1963518215        0.1048886847
 O          1.4028570251        0.8667425292       -0.5215917988
 O          1.2803668708       -1.3126414777       -0.0822425704
 H         -1.3665512083       -0.7007304395       -1.3430187116
 H         -2.9272581524        0.1033849588       -1.1631738948
 H         -2.4355130503       -1.1444743873       -0.0159575425
 H         -2.1725035565        1.1269302124        0.9730699390
 H         -1.1042593211        1.5896591718       -0.3555226558
 H         -0.5318785899       -0.6805506746        1.6133687401
 H          0.1424162244        0.9656172935        1.7115881869
 H          2.1111971395        0.5884465068       -1.1227913590
  14
  -20.787959279999999        3.4655285219134725E-002 !mtd10
 C         -2.0799045603       -0.3128145944       -0.6218660926
 C         -1.4376883060        0.7511185877        0.2592935110
 C         -0.2382355732        0.1966688620        1.0377170303
 C          0.8778274196       -0.1962955455        0.1049743623
 O          1.4022602681        0.8669043327       -0.5218351935
 O          1.2799273415       -1.3125369534       -0.0825697606
 H         -2.9270727390        0.1026454846       -1.1624905241
 H         -2.4316378518       -1.1461972888       -0.0179331285
 H         -1.3646528255       -0.6979580218       -1.3450953624
 H         -2.1732001369        1.1256226083        0.9739205125
 H         -1.1044668459        1.5902607921       -0.3537146489
 H         -0.5319675374       -0.6810559353        1.6136244225
 H          0.1424532067        0.9650416306        1.7125680836
 H          2.1102369687        0.5879562210       -1.1231220548
  14
  -20.787959200000000        3.4652351579804862E-002 !mtd10
 C         -2.0813763264       -0.3103614542       -0.6224376368
 C         -1.4374054016        0.7511665615        0.2603260098
 C         -0.2386642427        0.1935452786        1.0375325239
 C          0.8780365888       -0.1969435962        0.1044744446
 O          1.4009351079        0.8674554179       -0.5214772360
 O          1.2826256451       -1.3122598317       -0.0828603604
 H         -2.4346932781       -1.1440340405       -0.0198703049
 H         -1.3667595626       -0.6954202981       -1.3461688382
 H         -2.9276463062        0.1075046744       -1.1625542107
 H         -2.1722772112        1.1254198228        0.9756746926
 H         -1.1031933763        1.5908934064       -0.3513221119
 H         -0.5328822294       -0.6858713929        1.6106087289
 H          0.1419746649        0.9595660771        1.7150909744
 H          2.1101555157        0.5902508948       -1.1221078120
  14
  -20.787368059999999        1.8538029882253833E-002 !mtd1
 C         -2.2072783997       -0.6985687897        0.2258153943
 C         -1.5355169379        0.4530187798       -0.5108998785
 C         -0.2681760645        0.9423384742        0.1988919276
 C          0.8828805772       -0.0233365583        0.0767030185
 O          2.0319414018        0.6215639506       -0.1792939168
 O          0.8381696984       -1.2180539148        0.1907431460
 H         -3.0856725868       -1.0340106787       -0.3201786502
 H         -2.5186906692       -0.3852888179        1.2201615022
 H         -1.5186256407       -1.5321947891        0.3242869558
 H         -2.2300509597        1.2925229468       -0.5877137635
 H         -1.2794790180        0.1383436242       -1.5245822809
 H         -0.4771481010        1.0697484513        1.2643463041
 H          0.0582240229        1.9017565534       -0.2036647084
 H          2.7683229617       -0.0076282685       -0.2413149042
  14
  -20.785832870000000        3.6520700824406575E-003 !gc
 C         -2.0744202781        1.0690281526       -0.0391169086
 C         -1.5654721943       -0.2990328451        0.3986559732
 C         -0.4051599840       -0.8103100397       -0.4616831031
 C          0.9517539343       -0.2658674699       -0.0922562009
 O          0.9359063835        1.0129662188        0.3031149766
 O          1.9737156571       -0.8971001149       -0.1532281931
 H         -2.8972786512        1.3842081561        0.5981502754
 H         -2.4322985063        1.0306827969       -1.0659788175
 H         -1.2839160601        1.8101071771        0.0258720743
 H         -2.3828883882       -1.0197586580        0.3281405176
 H         -1.2509605628       -0.2565242775        1.4427553208
 H         -0.5828271442       -0.5456788947       -1.5078182209
 H         -0.3301827237       -1.8975503232       -0.4050642627
 H          1.8354206666        1.3039854846        0.5212808160
