  14
        -20.78851495
 C         -2.8136025137        0.2289965400        0.0002151924
 C         -1.4461753486       -0.4407338051       -0.0005830442
 C         -0.3205349765        0.5887861269        0.0002425057
 C          1.0410626492       -0.0537865904        0.0000756040
 O          2.0184855555        0.8671960314       -0.0001966983
 O          1.2710000324       -1.2318999649        0.0002259431
 H         -2.9348887733        0.8546921462       -0.8814556555
 H         -2.9342975893        0.8537257975        0.8826536459
 H         -3.6020915907       -0.5190721357        0.0000709168
 H         -1.3444363895       -1.0782118524       -0.8801652482
 H         -1.3441757818       -1.0798590135        0.8777741648
 H         -0.3841895718        1.2343068688        0.8794641131
 H         -0.3839337542        1.2355943674       -0.8780332853
 H          2.8874720399        0.4358621902       -0.0001801147
  14
        -20.78847558
 C         -2.1279907080       -0.0538239359       -0.7553488760
 C         -1.5536971591       -0.1716635905        0.6509282790
 C         -0.2446628286        0.6031938276        0.7914957885
 C          0.8830205373       -0.0422485419        0.0269531901
 O          1.8109161916        0.8578068588       -0.3330994542
 O          0.9900504424       -1.2101622190       -0.2296398396
 H         -1.4332589052       -0.4680186982       -1.4817485250
 H         -2.3154984476        0.9878934577       -1.0084426422
 H         -3.0652679103       -0.5995803470       -0.8291342310
 H         -1.3637196032       -1.2217115890        0.8779460096
 H         -2.2741362856        0.2120345604        1.3755008220
 H          0.0650102359        0.6289389870        1.8399645148
 H         -0.3508891850        1.6333460838        0.4493954306
 H          2.5421583240        0.4227828360       -0.7995343935
  14
        -20.78802815
 C         -2.7666236794        0.2945729176       -0.0046558267
 C         -1.3530628211        0.0000374776        0.4790637916
 C         -0.3333439261        0.1560481782       -0.6575697202
 C          1.0428746445       -0.1671807716       -0.1415958295
 O          1.6267830996        0.8995870802        0.4225216593
 O          1.5745819392       -1.2433984785       -0.1831062440
 H         -2.8374231309        1.3118311402       -0.3829457007
 H         -3.4756389407        0.1811553726        0.8116773104
 H         -3.0482972103       -0.3892390176       -0.8019540858
 H         -1.3011809168       -1.0196509033        0.8657820903
 H         -1.0916248202        0.6839750426        1.2889190061
 H         -0.3464119795        1.1824705257       -1.0240268160
 H         -0.5765563933       -0.5323445787       -1.4670067836
 H          2.4970176020        0.6612986071        0.7791654130
  14
        -20.78795935
 C         -2.0818514097       -0.3156793510        0.6190937642
 C         -1.4374785940        0.7517635909       -0.2561780671
 C         -0.2380987853        0.1996850313       -1.0365501414
 C          0.8781192842       -0.1957951487       -0.1050559469
 O          1.4055765181        0.8663546213        0.5209387179
 O          1.2777471351       -1.3129301611        0.0823974790
 H         -1.3671823777       -0.7067789648        1.3395121806
 H         -2.4362587750       -1.1445135070        0.0105228728
 H         -2.9274579758        0.0989387979        1.1627596805
 H         -1.1038040560        1.5875233649        0.3611956508
 H         -2.1719926855        1.1306423108       -0.9694532460
 H          0.1422568412        0.9701799094       -1.7091188447
 H         -0.5318570948       -0.6763883563       -1.6149286588
 H          2.1135478418        0.5862259002        1.1216962373
  14
        -20.78736806
 C         -2.2072783997       -0.6985687897        0.2258153943
 C         -1.5355169379        0.4530187798       -0.5108998785
 C         -0.2681760645        0.9423384742        0.1988919276
 C          0.8828805772       -0.0233365583        0.0767030185
 O          2.0319414018        0.6215639506       -0.1792939168
 O          0.8381696984       -1.2180539148        0.1907431460
 H         -3.0856725868       -1.0340106787       -0.3201786502
 H         -2.5186906692       -0.3852888179        1.2201615022
 H         -1.5186256407       -1.5321947891        0.3242869558
 H         -2.2300509597        1.2925229468       -0.5877137635
 H         -1.2794790180        0.1383436242       -1.5245822809
 H         -0.4771481010        1.0697484513        1.2643463041
 H          0.0582240229        1.9017565534       -0.2036647084
 H          2.7683229617       -0.0076282685       -0.2413149042
  14
        -20.78583287
 C         -2.0744202781        1.0690281526       -0.0391169086
 C         -1.5654721943       -0.2990328451        0.3986559732
 C         -0.4051599840       -0.8103100397       -0.4616831031
 C          0.9517539343       -0.2658674699       -0.0922562009
 O          0.9359063835        1.0129662188        0.3031149766
 O          1.9737156571       -0.8971001149       -0.1532281931
 H         -2.8972786512        1.3842081561        0.5981502754
 H         -2.4322985063        1.0306827969       -1.0659788175
 H         -1.2839160601        1.8101071771        0.0258720743
 H         -2.3828883882       -1.0197586580        0.3281405176
 H         -1.2509605628       -0.2565242775        1.4427553208
 H         -0.5828271442       -0.5456788947       -1.5078182209
 H         -0.3301827237       -1.8975503232       -0.4050642627
 H          1.8354206666        1.3039854846        0.5212808160
