  17
        -21.14713491
 C         -1.6853320561       -0.8147963737       -0.3496694413
 C         -0.4492451425        0.0046511425        0.0235378196
 C         -0.5515870145        1.4171617468       -0.5544701248
 N         -0.3943982788        0.1207955288        1.4728043743
 C          0.8117668597       -0.6903395466       -0.5438369926
 O          1.9562555510        0.0028714250       -0.0893931591
 H         -1.6163174386       -1.8213389444        0.0579449198
 H         -1.7898584553       -0.8832890917       -1.4292419958
 H         -2.5680548297       -0.3363260469        0.0637830896
 H         -1.3722583784        1.9432840257       -0.0761003681
 H         -0.7248994560        1.3808544518       -1.6267418583
 H          0.3716692299        1.9577689202       -0.3640868464
 H          0.4349958136        0.6460323249        1.7295126232
 H         -0.3169393726       -0.7988805410        1.8956840950
 H          0.7679884142       -0.6932851266       -1.6412184576
 H          0.8396632340       -1.7352005692       -0.1966926544
 H          2.7382635662       -0.3909368795       -0.4864197119
