  17
        -21.14625030
 C         -1.1965912085       -0.8985732544       -0.6124997481
 C         -0.3776604053        0.0939435925        0.2242388492
 C         -0.4591500053        1.4917710940       -0.3883785163
 N         -0.8280290673        0.1780668131        1.6105177992
 C          1.0910607623       -0.3619773009        0.2660792996
 O          1.6136353615       -0.4122337598       -1.0427920024
 H         -1.1709801091       -1.8891667824       -0.1600493467
 H         -0.7789344631       -0.9635014075       -1.6126296099
 H         -2.2330694085       -0.5731069789       -0.6810200051
 H          0.0419973340        2.2041908322        0.2612405548
 H         -1.4967378860        1.7955279705       -0.5058610079
 H          0.0238036111        1.4906618345       -1.3605538839
 H         -0.8281490706       -0.7418264926        2.0392382826
 H         -1.7790622620        0.5297732508        1.6396329660
 H          1.1456192632       -1.3540061707        0.7394887411
 H          1.6531850029        0.3454379359        0.8892331803
 H          2.5442777495       -0.6497008223       -0.9924005417
