  17
        -21.14670609
 C         -1.6911970435       -0.8052560945       -0.3584909925
 C         -0.4508292126        0.0033358071        0.0279848245
 C         -0.5157357540        1.4041603209       -0.5996129409
 N         -0.3684910576        0.0374337375        1.4830217619
 C          0.8099355913       -0.7216467112       -0.4700726637
 O          1.9502161672        0.0396381549       -0.1271392168
 H         -1.6572778012       -1.7813329784        0.1172282543
 H         -1.7467807922       -0.9349024768       -1.4360550850
 H         -2.5873497659       -0.2900797940       -0.0219864671
 H         -0.6066990534        1.3344919072       -1.6807212432
 H          0.3913990801        1.9545278696       -0.3617374091
 H         -1.3744911039        1.9502179893       -0.2128870604
 H         -1.1002052122        0.6290985695        1.8619331160
 H          0.5259955222        0.4326496530        1.7531537526
 H          0.7510915805       -0.8535860972       -1.5593486809
 H          0.8514451993       -1.7097619550        0.0053315043
 H          2.7363213682       -0.4577997389       -0.3702448886
