  17
        -21.14612773
 C         -1.2054386802       -0.8959672811       -0.5741841818
 C         -0.3717114447        0.0979899202        0.2334279144
 C         -0.4603883722        1.4911413049       -0.3882846720
 N         -0.9183211908        0.1636473143        1.5815100224
 C          1.1052288965       -0.3639801152        0.2458720810
 O          1.6019201543       -0.4172302621       -1.0714441209
 H         -0.8188631733       -0.9577108760       -1.5865849231
 H         -2.2406139371       -0.5693586701       -0.5977381552
 H         -1.1627234484       -1.8842351677       -0.1208672118
 H         -1.4966517632        1.8141939141       -0.4132379331
 H         -0.0613935532        1.4657613400       -1.3974327610
 H          0.1128294242        2.2061475140        0.1983942892
 H         -0.3915377900        0.8173256269        2.1506600378
 H         -0.8801446721       -0.7459270054        2.0286591496
 H          1.1664201252       -1.3562374854        0.7216567053
 H          1.6961839285        0.3410673160        0.8527702323
 H          2.5196526325       -0.7049445055       -1.0484356001
