  17
        -21.14739211
 C         -1.2131399642       -1.0138175450       -0.3608582540
 C         -0.3910589618        0.2232307433        0.0002926086
 C         -1.0434680032        1.4864874104       -0.5622202762
 N         -0.3749688622        0.3413064432        1.4541980080
 C          1.0358580629        0.0863595920       -0.5899914031
 O          1.7467337185       -1.0145332510       -0.0755827306
 H         -0.6688396996       -1.9161571158       -0.0901775169
 H         -1.4106737701       -1.0385658731       -1.4286488360
 H         -2.1568261767       -0.9945872948        0.1769346689
 H         -2.0441455273        1.5877212607       -0.1526798873
 H         -1.1041358654        1.4354169011       -1.6456518313
 H         -0.4682853290        2.3680569855       -0.2872616917
 H          0.2307611933        1.0981645660        1.7522356735
 H         -0.0649743757       -0.5216273449        1.8868390127
 H          1.5949323975        1.0181912744       -0.4089788405
 H          0.9786049156       -0.0776341657       -1.6671819260
 H          1.8045448309       -0.9194722310        0.8830566868
