  17
        -21.14832472
 C         -1.2128191324       -0.9113390452       -0.5666072537
 C         -0.3750297479        0.0896710606        0.2286796357
 C         -0.4974139830        1.4876336885       -0.3868225206
 N         -0.9057520519        0.1594863027        1.5843638480
 C          1.1074244247       -0.3652713032        0.2333105846
 O          1.6888281947       -0.4564290423       -1.0420718480
 H         -2.2385766278       -0.5619238254       -0.6373200359
 H         -1.2092366981       -1.8805478986       -0.0732239193
 H         -0.8002297213       -1.0323289693       -1.5645437761
 H          0.1979034311        2.1800878542        0.0856796556
 H         -1.5070942085        1.8551027581       -0.2273919318
 H         -0.3049885090        1.4622951491       -1.4567728377
 H         -0.3675361627        0.8117969872        2.1447363164
 H         -0.8594859816       -0.7492127776        2.0319913001
 H          1.1775790743       -1.3713023820        0.6576393908
 H          1.6892172317        0.3182198904        0.8744745861
 H          1.6539165046        0.4134661322       -1.4547789206
