  17
        -21.14774013
 C         -1.2202568256       -0.8947035633       -0.5983509429
 C         -0.3777396867        0.0992764924        0.2225661900
 C         -0.4718711960        1.4965188489       -0.3904632049
 N         -0.8111944801        0.1802087154        1.6118360362
 C          1.0987483717       -0.3510506185        0.2532235917
 O          1.7069707962       -0.4127653331       -1.0104443429
 H         -2.2765696196       -0.6443163379       -0.5121684013
 H         -1.0789643397       -1.9124606169       -0.2342990985
 H         -0.9547770956       -0.8559026919       -1.6527408570
 H         -0.0220918023        2.2168183722        0.2867967662
 H         -1.5100507846        1.7738228047       -0.5591252779
 H          0.0619923814        1.5228810513       -1.3364680742
 H         -0.7888306407       -0.7347404892        2.0491492469
 H         -1.7632426648        0.5261442203        1.6616024344
 H          1.1663625311       -1.3237200632        0.7640819670
 H          1.6728577637        0.3763026436        0.8294541640
 H          1.2426579752       -1.0683293499       -1.5424034448
