  58
        -58.97296570
 C          1.2942284188       -1.3696747634       -2.1391438161
 C          1.7205017314       -0.2925166453       -1.1444285910
 C          2.7809881199       -0.7175139472       -0.1035300237
 C          2.1187476738       -1.6599048452        0.9112472976
 C          3.9000801740       -1.5002828676       -0.8034485370
 C          3.3628350911        0.5499300307        0.6174410018
 C          2.2542395814        1.5258944197        1.0375995735
 C          4.1325080640        0.1685577486        1.8905439494
 C          4.3343964385        1.3157207631       -0.2920075721
 H          2.1145714814       -1.6594103495       -2.7895138007
 H          0.4941559629       -0.9802956217       -2.7666848952
 H          0.9214551624       -2.2593108436       -1.6368897367
 H          0.8306197515        0.0424900858       -0.6107518896
 H          2.0968329872        0.5532171393       -1.7217993548
 H          1.5915460817       -2.4561944086        0.3920047381
 H          1.3982327987       -1.1362111459        1.5337026501
 H          2.8606314777       -2.1246668520        1.5539617769
 H          3.5367594083       -2.4806097484       -1.1009042634
 H          4.7454972115       -1.6538515321       -0.1383254109
 H          4.2497156080       -0.9813054326       -1.6915040525
 H          1.4781655652        1.0258314543        1.6109504358
 H          1.7986973883        2.0078071354        0.1772590578
 H          2.6784985349        2.3054396740        1.6674701746
 H          4.8727243859       -0.6035451691        1.6991877320
 H          3.4598829766       -0.1799462598        2.6689262537
 H          4.6572413914        1.0429726219        2.2707583197
 H          3.8946152259        1.5308089358       -1.2622387719
 H          5.2536833619        0.7579125612       -0.4448244104
 H          4.5935524937        2.2653729067        0.1722124306
 C         -1.6166445533        1.8065534405       -2.0583708355
 C         -2.2789444303        0.5647640079       -1.4661305630
 C         -2.8844814822        0.7337927069       -0.0538381664
 C         -1.9123151836        1.5230451629        0.8328529099
 C         -4.1739856976        1.5575853047       -0.1745829938
 C         -3.1816630554       -0.6741195309        0.5735748365
 C         -1.8915512848       -1.3614738647        1.0430766083
 C         -4.1108686593       -0.5617300387        1.7911453796
 C         -3.8660200414       -1.6119788219       -0.4315621556
 H         -1.3104112789        1.5954031925       -3.0815133350
 H         -0.7307481283        2.0922177876       -1.4984262727
 H         -2.2978012663        2.6533128245       -2.0841940436
 H         -1.5298664054       -0.2270834315       -1.4452866223
 H         -3.0724715027        0.2512858378       -2.1461537557
 H         -2.2284304990        1.5062084763        1.8724451830
 H         -1.8814130343        2.5627847632        0.5179130223
 H         -0.9059466330        1.1198481679        0.7726080264
 H         -3.9838562263        2.4621549116       -0.7468427003
 H         -4.5390908064        1.8584889280        0.8031343191
 H         -4.9572381059        1.0015077759       -0.6830551217
 H         -1.4735740154       -0.8622662919        1.9126776627
 H         -1.1394364644       -1.3843547328        0.2597375668
 H         -2.1093059214       -2.3902738805        1.3236193993
 H         -5.1191151604       -0.2880198618        1.4941344659
 H         -3.7494317588        0.1695619307        2.5090854914
 H         -4.1622357165       -1.5242375784        2.2966583159
 H         -3.1847296803       -1.9168179521       -1.2206569821
 H         -4.7366843579       -1.1460754237       -0.8851257918
 H         -4.2013954981       -2.5102083911        0.0835152976
