  58
        -58.97299237
 C          1.2092871709       -2.3878284401       -1.3322191912
 C          1.7005472250       -0.9659289647       -1.0710074793
 C          2.8005250268       -0.8191990909        0.0046930997
 C          2.1734826345       -1.0714402548        1.3828963424
 C          3.8784838018       -1.8882280405       -0.2191428071
 C          3.4270983346        0.6187790702       -0.0608899483
 C          2.3477612231        1.7052168510       -0.1752596605
 C          4.2489181683        0.9311408126        1.1984643862
 C          4.3655673766        0.7678370719       -1.2669225298
 H          1.9918925362       -3.0074638803       -1.7606979513
 H          0.3828301924       -2.3566427260       -2.0399182404
 H          0.8489161798       -2.8631989157       -0.4236909566
 H          0.8429119386       -0.3644075177       -0.7676296239
 H          2.0656292900       -0.5661702710       -2.0183500724
 H          1.6157091803       -2.0043718117        1.3744026360
 H          1.4874556991       -0.2757721822        1.6615374336
 H          2.9380988461       -1.1550225565        2.1496319382
 H          3.4913638133       -2.8672503646        0.0511943036
 H          4.7515625757       -1.7002484566        0.3998131656
 H          4.1930510342       -1.9201490181       -1.2585139553
 H          1.5865706113        1.5943098646        0.5920841898
 H          1.8655842821        1.6884822773       -1.1484682867
 H          2.8064022188        2.6842516926       -0.0490134839
 H          4.9698586044        0.1475619389        1.4151782488
 H          3.6080764385        1.0635187137        2.0653682438
 H          4.8016394519        1.8566275609        1.0485111466
 H          3.8852600136        0.4621842461       -2.1925804320
 H          5.2707035385        0.1817763354       -1.1368942084
 H          4.6560176020        1.8113009901       -1.3733550809
 C         -1.5758728003        2.9109954861       -0.0507462325
 C         -1.6728174535        1.4092045751        0.2072186280
 C         -3.1012049414        0.8192988453        0.2337287634
 C         -3.7927576861        1.2752247988        1.5259677251
 C         -3.9070291838        1.3778463109       -0.9467909244
 C         -3.0365382152       -0.7477622301        0.1641595223
 C         -1.9737190579       -1.3175573161        1.1146294149
 C         -4.3791037682       -1.3827935145        0.5552899142
 C         -2.6972244801       -1.2324360348       -1.2527125254
 H         -1.9151254358        3.1655086794       -1.0508176437
 H         -0.5368480759        3.2231711930        0.0384545124
 H         -2.1575366215        3.4821191326        0.6682623906
 H         -1.1964075476        1.2015806197        1.1666649614
 H         -1.0923712489        0.9088139438       -0.5690976880
 H         -3.7004268166        2.3525752831        1.6371905666
 H         -3.3478063994        0.8113325803        2.4023850824
 H         -4.8523203615        1.0375456963        1.5064404839
 H         -4.1386702886        2.4258256446       -0.7751174233
 H         -4.8497542567        0.8498386353       -1.0617749566
 H         -3.3517876920        1.2984898059       -1.8771653908
 H         -2.0878362957       -0.9296716411        2.1234294108
 H         -0.9698221198       -1.0953666298        0.7674030764
 H         -2.0765222586       -2.4000726284        1.1627681221
 H         -5.2075365561       -0.9515230074       -0.0000984669
 H         -4.5755484475       -1.2680192676        1.6173849093
 H         -4.3522282753       -2.4482546807        0.3348327627
 H         -1.8155753239       -0.7358310908       -1.6485364803
 H         -3.5248194782       -1.0642067285       -1.9358074842
 H         -2.4941503652       -2.3014136403       -1.2307435177
