  58
        -58.97295036
 C          1.9374982976        2.6500603722        0.8707754588
 C          1.8880863393        1.1342977161        0.6937929423
 C          3.1919191373        0.4719268671        0.1940353080
 C          3.7818929819        1.3019065549       -0.9539018847
 C          4.2104812587        0.4753671913        1.3422745096
 C          2.8989688513       -0.9950272676       -0.2822715622
 C          2.2048989011       -1.0107530969       -1.6518180097
 C          4.1926223510       -1.8115581827       -0.4166906663
 C          1.9926802341       -1.7436913958        0.7057977152
 H          2.7519274992        2.9546104030        1.5230917343
 H          1.0074233534        2.9877905803        1.3252694736
 H          2.0489233233        3.1596590963       -0.0824141822
 H          1.0822279160        0.9139242126       -0.0056693242
 H          1.6235948501        0.6942338427        1.6564190838
 H          4.1848070753        2.2348523437       -0.5683499346
 H          3.0276872329        1.5377389481       -1.6993080593
 H          4.5953759642        0.7717354265       -1.4418860701
 H          5.1972167089        0.1878548970        0.9910107289
 H          3.9143350908       -0.2001356859        2.1406723603
 H          4.2906781695        1.4738220217        1.7647060247
 H          2.8893015579       -0.7190559190       -2.4432454055
 H          1.3462700755       -0.3460605452       -1.6760520476
 H          1.8528512797       -2.0174720830       -1.8693542571
 H          3.9726291798       -2.7589142965       -0.9053077040
 H          4.6243743854       -2.0311665590        0.5554836313
 H          4.9350739529       -1.2939270792       -1.0180996868
 H          0.9790241608       -1.3540455535        0.6892786527
 H          2.3717421753       -1.6827338368        1.7224920930
 H          1.9477652638       -2.7957608153        0.4305937820
 C         -1.2910762915        1.5065706529       -1.8600617506
 C         -1.7979050378        0.2309222580       -1.1903769699
 C         -2.7827089970        0.4322919418       -0.0164340114
 C         -2.0042822846        0.9864791958        1.1847520069
 C         -3.8375702070        1.4757488930       -0.4082129145
 C         -3.4657574380       -0.9328588770        0.3499900837
 C         -2.4469367953       -2.0799874388        0.4183312553
 C         -4.1593669262       -0.8643104700        1.7185713486
 C         -4.5327018005       -1.3210013747       -0.6837174049
 H         -2.0932760143        2.0353983172       -2.3667610086
 H         -0.5418493025        1.2468003510       -2.6067192786
 H         -0.8288865675        2.1833036586       -1.1457394938
 H         -0.9348206536       -0.3253169188       -0.8219093149
 H         -2.2736848239       -0.3757561923       -1.9623534667
 H         -1.4183040085        1.8502427090        0.8821390241
 H         -1.3200345528        0.2479493687        1.5939509290
 H         -2.6794925252        1.3086071621        1.9720573149
 H         -3.3874885409        2.4647083030       -0.4385013676
 H         -4.6458340121        1.5071922604        0.3173467617
 H         -4.2600922991        1.2625443944       -1.3860814836
 H         -2.9287145692       -2.9664548952        0.8263785428
 H         -1.6090128903       -1.8335522287        1.0650393036
 H         -2.0641297813       -2.3342426061       -0.5658209282
 H         -4.8233804539       -0.0073606672        1.7924895429
 H         -3.4348858920       -0.8136144847        2.5262197801
 H         -4.7588453283       -1.7607975570        1.8648096709
 H         -4.1432195648       -1.2886626101       -1.6977366250
 H         -5.3963649803       -0.6651395471       -0.6237300757
 H         -4.8714244713       -2.3371842596       -0.4912007045
