  58
        -58.97314327
 C          1.8425590644        1.2822831278       -2.4821015925
 C          1.9008859554        0.9225699980       -0.9993845631
 C          2.9470513841       -0.1446402455       -0.6057101059
 C          2.4572645293       -1.5114432811       -1.1037220608
 C          4.2775389302        0.1570432815       -1.3083291767
 C          3.1376334951       -0.1606002609        0.9525111248
 C          1.7923554110       -0.1183123659        1.6916354628
 C          3.8666798276       -1.4301417734        1.4163994573
 C          3.9652455567        1.0419033821        1.4285341939
 H          1.0167827625        1.9720298555       -2.6499897358
 H          1.6763545125        0.4057714132       -3.1033761256
 H          2.7548496447        1.7713973465       -2.8116470962
 H          0.9158780146        0.5613937162       -0.7056506606
 H          2.0966452356        1.8436664565       -0.4481283512
 H          2.1762060186       -1.4460289873       -2.1516703841
 H          1.5880011851       -1.8510625774       -0.5471006801
 H          3.2390112444       -2.2609406925       -1.0198702241
 H          4.1921231510       -0.0565560244       -2.3706675515
 H          5.0783267800       -0.4627860283       -0.9140983866
 H          4.5589993265        1.1997685651       -1.1910650935
 H          1.1171228338       -0.8924382334        1.3372292842
 H          1.3074698234        0.8473275752        1.5800814086
 H          1.9570762859       -0.2859366203        2.7543290181
 H          4.7873281946       -1.5919788473        0.8624107929
 H          3.2371466914       -2.3086516823        1.3084624476
 H          4.1262991836       -1.3338005165        2.4689557562
 H          3.5686011781        1.9798932300        1.0491501490
 H          5.0023216786        0.9541534818        1.1182218145
 H          3.9451194589        1.0887665619        2.5157235285
 C         -1.4354599314       -1.2509978822       -2.0369865688
 C         -1.8438331307       -1.0082082756       -0.5859155667
 C         -2.7987872751        0.1828508565       -0.3445536616
 C         -2.0164074978        1.4873521535       -0.5496367717
 C         -3.9274098868        0.1503087766       -1.3838314913
 C         -3.3851165021        0.1146110304        1.1100774070
 C         -2.2979045514       -0.1970975910        2.1490528255
 C         -4.0301221229        1.4472732455        1.5185036725
 C         -4.4646978865       -0.9706432423        1.2292573859
 H         -2.2840233316       -1.5525690056       -2.6445764179
 H         -0.6986454663       -2.0515372662       -2.0719944822
 H         -0.9863101642       -0.3673970041       -2.4821443689
 H         -0.9361290050       -0.8429034512       -0.0042402872
 H         -2.3090297999       -1.9243797257       -0.2184801726
 H         -2.6843104977        2.3435646517       -0.5693503099
 H         -1.4907342171        1.4605319650       -1.5004639846
 H         -1.2800440618        1.6394085893        0.2350775454
 H         -3.5388718377        0.4240006423       -2.3613933283
 H         -4.7110273819        0.8603089769       -1.1334974339
 H         -4.3692179966       -0.8394999372       -1.4566844970
 H         -1.4476017965        0.4725998292        2.0541278241
 H         -1.9448066976       -1.2206321112        2.0627620043
 H         -2.7080933953       -0.0715408116        3.1492251538
 H         -4.7402062494        1.7971800064        0.7740949390
 H         -3.2802915061        2.2177209630        1.6730143310
 H         -4.5698262690        1.3155638184        2.4543307409
 H         -4.1152900421       -1.9299990378        0.8569241365
 H         -5.3629834826       -0.6945166975        0.6847793325
 H         -4.7349657744       -1.0997132301        2.2755548306
