  58
        -58.97294358
 C          1.1817822268       -2.4085096772        0.3079333867
 C          1.9534446022       -1.2176739857        0.8720132523
 C          2.9884541514       -0.5756276189       -0.0798186255
 C          4.1812934319       -1.5312595655       -0.2203250916
 C          2.3638304999       -0.4016010074       -1.4705404074
 C          3.4548389408        0.8105203856        0.4907803648
 C          3.7678381333        0.7330278903        1.9922734926
 C          4.7277389748        1.3072984441       -0.2102482689
 C          2.3764303321        1.8861071139        0.2984201488
 H          0.5418256581       -2.1156009629       -0.5196960931
 H          0.5497445279       -2.8289090336        1.0887798173
 H          1.8485346751       -3.1955341793       -0.0345325532
 H          2.4708960648       -1.5514564782        1.7725479169
 H          1.2228148901       -0.4640518730        1.1694470253
 H          3.8315870729       -2.5279776979       -0.4769061881
 H          4.7454224736       -1.6053878274        0.7057478627
 H          4.8510270431       -1.2059129249       -1.0110596468
 H          2.2519667449       -1.3700949880       -1.9513900044
 H          2.9956840018        0.2087160598       -2.1101851644
 H          1.3854679728        0.0646183118       -1.4064813599
 H          4.4496610437       -0.0825209792        2.2177634432
 H          2.8647041069        0.6042601843        2.5818890774
 H          4.2428498029        1.6592763556        2.3101332939
 H          4.6261855625        1.2900768051       -1.2919524838
 H          5.5904620803        0.7088024324        0.0676060436
 H          4.9261612771        2.3353369279        0.0870142924
 H          1.4140751088        1.5596860026        0.6830652317
 H          2.2622925163        2.1474150502       -0.7496488399
 H          2.6614833773        2.7870610609        0.8386280965
 C         -1.1821394099        1.6879078888       -1.8686933131
 C         -1.8744719254        0.4245193651       -1.3620911038
 C         -2.7628086238        0.6007086557       -0.1092871235
 C         -1.8488632846        0.7946838986        1.1084941481
 C         -3.6148870829        1.8682755457       -0.2581571232
 C         -3.6789771602       -0.6594130025        0.0824663227
 C         -2.8951125982       -1.9668767091       -0.1017989834
 C         -4.2941718007       -0.6979188734        1.4892148922
 C         -4.8385575941       -0.6673506991       -0.9239431622
 H         -1.8997806227        2.4114488813       -2.2449078211
 H         -0.5131836368        1.4263876599       -2.6870539555
 H         -0.5883707934        2.1629550167       -1.0920096080
 H         -1.1045971355       -0.3142837405       -1.1348220884
 H         -2.4772684479        0.0317282883       -2.1822385179
 H         -1.1235365057        1.5791447176        0.9058481690
 H         -1.3031478145       -0.1151578869        1.3451252599
 H         -2.4191318427        1.0959085501        1.9824138584
 H         -2.9871708821        2.7507875876       -0.1651824764
 H         -4.3728619118        1.9235538132        0.5185490609
 H         -4.1091342618        1.9008544483       -1.2249862468
 H         -2.0010301624       -1.9869643917        0.5148111776
 H         -2.6065988362       -2.1172798412       -1.1380863549
 H         -3.5204006333       -2.8073029654        0.1935709337
 H         -4.7778422505        0.2410156829        1.7448942972
 H         -3.5432862095       -0.9187085688        2.2424504618
 H         -5.0488318538       -1.4810016963        1.5318758257
 H         -4.4886366205       -0.5324751462       -1.9439500385
 H         -5.5603731505        0.1126932367       -0.6998214259
 H         -5.3551334485       -1.6240184674       -0.8745131877
