  58
        -58.97307777
 C          1.6581868894        1.7743100002       -1.9450044973
 C          1.8035368631        1.0086698572       -0.6317900250
 C          2.9379977820       -0.0404141408       -0.5883001578
 C          2.5196900255       -1.2425615220       -1.4461960130
 C          4.2104827656        0.5531317882       -1.2073815077
 C          3.2025804848       -0.4852956876        0.8937257072
 C          1.8933429917       -0.7612537355        1.6472765676
 C          4.0377580917       -1.7727162698        0.9535535755
 C          3.9675060655        0.5927874036        1.6748928253
 H          2.5160530031        2.4144867276       -2.1301848776
 H          0.7742639952        2.4083331173       -1.8963090134
 H          1.5392358927        1.1032320540       -2.7920728011
 H          0.8598019357        0.4994631158       -0.4341037482
 H          1.9567453500        1.7436449327        0.1600815964
 H          2.1913301753       -0.9049856133       -2.4258201768
 H          1.6984460263       -1.7902968272       -0.9919521690
 H          3.3521622869       -1.9237916471       -1.5964415609
 H          4.0898038228        0.6484489621       -2.2833747259
 H          5.0682605413       -0.0902252651       -1.0309511743
 H          4.4272969775        1.5363232536       -0.7993498270
 H          1.2485429880       -1.4390622392        1.0936272861
 H          1.3491447159        0.1576544540        1.8469360524
 H          2.1179126710       -1.2272251689        2.6048777859
 H          4.9391675618       -1.6973903972        0.3515083285
 H          3.4647094496       -2.6313026929        0.6156161361
 H          4.3414190058       -1.9587076489        1.9820246986
 H          3.4932773466        1.5667795940        1.5881070703
 H          4.9938971071        0.6757103728        1.3295963530
 H          3.9908008019        0.3282090193        2.7303343114
 C         -1.4141506218       -1.1596081542       -2.0837349521
 C         -1.9878089448       -1.0658711299       -0.6717311520
 C         -2.9850731452        0.0898469855       -0.4272339624
 C         -2.4408534961        1.3793629210       -1.0561910448
 C         -4.3048040287       -0.2501555130       -1.1335413576
 C         -3.2160318316        0.2840584780        1.1133791570
 C         -2.0174445639        0.9771167658        1.7767519903
 C         -4.4552701847        1.1474571071        1.3914570887
 C         -3.4298265119       -1.0567594266        1.8309796222
 H         -2.1988004553       -1.2277178738       -2.8328879161
 H         -0.8020340937       -2.0564027910       -2.1634206700
 H         -0.7863275581       -0.3046797006       -2.3159959413
 H         -1.1483697909       -0.9694040391        0.0187416671
 H         -2.4904119254       -2.0084867633       -0.4497882667
 H         -2.4882774977        1.3127154947       -2.1400147561
 H         -1.4081150834        1.5532188494       -0.7690342441
 H         -3.0319329413        2.2404112640       -0.7558080008
 H         -4.1127855221       -0.5272971004       -2.1669794421
 H         -4.9744811222        0.6048900196       -1.1427691120
 H         -4.8111141836       -1.0841880150       -0.6546423218
 H         -1.9423133941        2.0163589989        1.4701369753
 H         -1.0827952319        0.4767161472        1.5398516843
 H         -2.1388702958        0.9557669237        2.8580740733
 H         -5.3700261204        0.6163931863        1.1447090544
 H         -4.4321643446        2.0790098789        0.8324721154
 H         -4.4907916158        1.3977467232        2.4500713065
 H         -2.5132081902       -1.6382089870        1.8710666980
 H         -4.1987198043       -1.6523319064        1.3462352128
 H         -3.7502339933       -0.8713963592        2.8544486725
