%nprocshared=4
%mem=8000mb
%chk=34.chk
%nprocshared=4
%mem=8000mb
#T wB97XD/def2svpp opt=tight freq int(grid=ultrafine) scf=(verytight,qc) Volume=tight

Dimer

0 1
 C          1.2832593801       -1.7156559172       -1.8858328591
 C          1.7581505331       -0.4542584896       -1.1678639782
 C          2.7353863933       -0.6778297311        0.0086743094
 C          1.9473216035       -1.2554578002        1.1927201171
 C          3.7940236783       -1.7133900197       -0.3936248543
 C          3.4159155243        0.6795279474        0.4073056673
 C          2.3984849244        1.8272594740        0.4838381430
 C          4.0935696574        0.5851123601        1.7822386589
 C          4.4947248681        1.0843946007       -0.6074772360
 H          2.0969036566       -2.2027280114       -2.4157589641
 H          0.5235671693       -1.4468360030       -2.6184386916
 H          0.8440475927       -2.4330865437       -1.1967389649
 H          0.8796343498        0.0694176137       -0.7899237478
 H          2.2280391596        0.1876791536       -1.9143315556
 H          1.3484181806       -2.1017137872        0.8658937270
 H          1.2742132116       -0.5186297089        1.6230414215
 H          2.6166159682       -1.6088949737        1.9716531047
 H          3.3438881109       -2.7011429979       -0.4497691826
 H          4.5939392041       -1.7604618545        0.3403469602
 H          4.2278583970       -1.4799557893       -1.3617905987
 H          1.5535663609        1.5725872305        1.1180107197
 H          2.0279310987        2.0975536520       -0.5008899403
 H          2.8775248739        2.7064574379        0.9105879842
 H          4.7566263268       -0.2732259506        1.8473861949
 H          3.3598865901        0.5188915033        2.5803832836
 H          4.6912090404        1.4785773813        1.9525196759
 H          4.1170242543        1.0670479346       -1.6263179677
 H          5.3582805042        0.4284640335       -0.5473399348
 H          4.8302218561        2.0977989733       -0.3954752351
 C         -1.4815005282        2.0973506563       -1.6409809491
 C         -2.2312589956        0.8025820331       -1.3354770764
 C         -2.8375799534        0.6937373745        0.0824282508
 C         -1.8070810791        1.1635554387        1.1175051451
 C         -4.0467026865        1.6350893247        0.1690097223
 C         -3.2674706675       -0.7884834161        0.3701731092
 C         -2.0498727348       -1.6783617256        0.6576123062
 C         -4.1984098923       -0.8772808892        1.5884020965
 C         -4.0198621431       -1.4042109035       -0.8185617762
 H         -2.1107338397        2.9714420298       -1.4940913061
 H         -1.1632307952        2.0884077944       -2.6820147197
 H         -0.5949006131        2.2030817199       -1.0223606807
 H         -1.5370809357       -0.0234814608       -1.4950097652
 H         -3.0366587739        0.7032683691       -2.0645336619
 H         -1.6767470583        2.2407287773        1.0518885322
 H         -0.8433941224        0.6909258798        0.9516437787
 H         -2.1338884126        0.9344184403        2.1283202429
 H         -3.7690293314        2.6291490181       -0.1721024395
 H         -4.3985221154        1.7263773667        1.1925292916
 H         -4.8681979765        1.2878996514       -0.4521730719
 H         -1.6030316042       -1.4387454085        1.6181932325
 H         -1.2909337352       -1.5790937189       -0.1127217154
 H         -2.3611917594       -2.7209741021        0.6860514727
 H         -5.1758285200       -0.4568769441        1.3700063251
 H         -3.7841073531       -0.3639488502        2.4519543996
 H         -4.3383317604       -1.9218086295        1.8603659186
 H         -3.3567448444       -1.5842330325       -1.6598477104
 H         -4.8362164151       -0.7676372427       -1.1491501494
 H         -4.4453721038       -2.3605567645       -0.5202230062


