  20
        -27.11983862
 C         -1.7869150091        1.5336352734        0.1705378421
 C         -1.4124364412        0.3371997229       -0.6969085634
 C         -0.3081430652       -0.5504264881       -0.0937011228
 C         -0.7150060766       -1.1315695150        1.2582892188
 C          0.0028249178       -1.6922234952       -1.0749020261
 C          0.9645512683        0.2761176701        0.0021142682
 O          1.5915356524        0.1688814854        1.1793616392
 O          1.4074568188        0.9492833254       -0.8916011273
 H         -0.9115005465        2.1456391384        0.3757821115
 H         -2.2224973542        1.2189145292        1.1152443975
 H         -2.5166965534        2.1502730475       -0.3490976935
 H         -1.0574540181        0.7019370129       -1.6626009790
 H         -2.2971969266       -0.2787501660       -0.8703382214
 H         -1.6641426854       -1.6536943444        1.1601822583
 H         -0.8178083057       -0.3518919360        2.0069409339
 H          0.0346171424       -1.8360715428        1.6091133901
 H         -0.8882441978       -2.2943033761       -1.2352013104
 H          0.7879427583       -2.3332426121       -0.6797045974
 H          0.3313531146       -1.2891896420       -2.0297786318
 H          2.4064862850        0.6957999168        1.1702623260
