  20
        -27.11932449
 C         -2.6541000192        0.7268550763       -0.1529587558
 C         -1.1626395750        1.0022040666       -0.0120254791
 C         -0.2644331091       -0.2453284599       -0.0419044823
 C         -0.5739368941       -1.1980337735        1.1188958610
 C         -0.3736760646       -0.9941857079       -1.3752378233
 C          1.1778409198        0.2195109610        0.1129710371
 O          2.0527391293       -0.7968871993        0.0943391357
 O          1.5386872954        1.3588930650        0.2411792380
 H         -2.8788903309        0.2414522211       -1.0988917416
 H         -3.1988380396        1.6675365652       -0.1211431125
 H         -3.0188437786        0.1010334381        0.6571431929
 H         -0.9822627606        1.5275391486        0.9280125079
 H         -0.8436171159        1.6692120457       -0.8154942906
 H          0.1486690957       -2.0098362537        1.1389899394
 H         -1.5659683654       -1.6243564848        0.9988604180
 H         -0.5323455891       -0.6687330691        2.0685361303
 H         -1.3670861510       -1.4199902260       -1.4852839501
 H          0.3522809297       -1.8024152246       -1.4106156167
 H         -0.1872642395       -0.3196311928       -2.2082668692
 H          2.9550368273       -0.4560106334        0.1961302703
