  20
        -27.11986212
 C         -1.8629485281        1.4826082059        0.3638249042
 C         -1.4417141106        0.4080612960       -0.6320545955
 C         -0.3161063966       -0.5091095585       -0.1276896334
 C         -0.6800964157       -1.1999039105        1.1866498084
 C         -0.0157043805       -1.5716307912       -1.1989802616
 C          0.9672966705        0.2935864020        0.0116215948
 O          1.8270931191       -0.2443904426        0.8872472570
 O          1.2426033523        1.2808787228       -0.6173317888
 H         -1.0072013466        2.0859281911        0.6556690212
 H         -2.3076215281        1.0468723426        1.2546623572
 H         -2.5991678260        2.1387675455       -0.0944535609
 H         -1.0931754590        0.8964445534       -1.5437337618
 H         -2.3048399229       -0.2103843558       -0.8866391515
 H          0.0741248413       -1.9371479373        1.4477374856
 H         -1.6387151799       -1.7027993852        1.0817865791
 H         -0.7469822778       -0.4829106543        1.9998801866
 H          0.2530381493       -1.0978901520       -2.1405546453
 H         -0.8957032204       -2.1901317980       -1.3589974806
 H          0.8053497244       -2.2110082101       -0.8823445723
 H          2.6453550161        0.2765527032        0.9089119065
