  20
        -27.11932741
 C         -2.5887501669        0.6731660679       -0.4460232578
 C         -1.0894621960        0.9254536253       -0.3419103623
 C         -0.2579964669       -0.3045842661        0.0780657513
 C         -0.6863560086       -0.8419908603        1.4427719670
 C         -0.3227777290       -1.4160819862       -0.9761751550
 C          1.1902201569        0.1560523679        0.1695843666
 O          1.6523714667        0.6313646054       -0.9968745671
 O          1.8801008053        0.1162312256        1.1525617141
 H         -2.8078889080       -0.0969803539       -1.1802906499
 H         -3.0869805745        1.5880548623       -0.7588647965
 H         -3.0049269142        0.3738031482        0.5117263397
 H         -0.9162727241        1.7205030410        0.3882740079
 H         -0.7187131649        1.2745668695       -1.3075215209
 H         -0.7136019790       -0.0399989100        2.1760280903
 H          0.0269261585       -1.5865302789        1.7873282949
 H         -1.6675550390       -1.3030666288        1.3813088479
 H         -0.0471761267       -1.0301357417       -1.9541736323
 H         -1.3265520964       -1.8283757595       -1.0272135370
 H          0.3614058343       -2.2204672633       -0.7133690441
 H          2.5761429591        0.9099363864       -0.8964957243
