  20
        -27.11986890
 C         -1.8432449922        1.4986445003        0.3079014142
 C         -1.4341011879        0.3876218769       -0.6523463313
 C         -0.3144192378       -0.5203427399       -0.1171545520
 C         -0.6916256656       -1.1797737616        1.2085803865
 C         -0.0078018403       -1.6067770701       -1.1623172228
 C          0.9664674553        0.2890854312        0.0067408354
 O          1.7606556419       -0.1267415172        1.0016289207
 O          1.2905598072        1.1849356143       -0.7276451382
 H         -2.5763961266        2.1446619346       -0.1694536235
 H         -0.9817438534        2.1051564712        0.5765694836
 H         -2.2872503894        1.0968711787        1.2149886343
 H         -1.0823627812        0.8410221053       -1.5807434729
 H         -2.3028890367       -0.2317861184       -0.8841039006
 H         -1.6495409625       -1.6844947003        1.1057296554
 H         -0.7654149280       -0.4448180690        2.0048002574
 H          0.0589035620       -1.9115855325        1.4947065664
 H         -0.8891203265       -2.2240842335       -1.3196019224
 H          0.8061883075       -2.2440823532       -0.8234663914
 H          0.2749693171       -1.1533486156       -2.1096166845
 H          2.5799545129        0.3931408572        1.0101478038
