  20
        -27.11986661
 C         -1.7408859640        1.5037039256       -0.6402747924
 C         -1.5356565645        0.3706007641        0.3586870420
 C         -0.3277991822       -0.5280521212        0.0435994195
 C         -0.2331533291       -1.6314726975        1.1111566236
 C         -0.4300112586       -1.1644568446       -1.3414045424
 C          0.9458561253        0.2884453154        0.1939043109
 O          1.9021193392       -0.0517510791       -0.6792237280
 O          1.1273896096        1.1305981589        1.0335847711
 H         -1.9888314879        1.1232117941       -1.6277553387
 H         -0.8433634955        2.1132453746       -0.7138097702
 H         -2.5571100857        2.1417079526       -0.3094055145
 H         -2.4322930799       -0.2514523102        0.3935653317
 H         -1.3821593892        0.8019025032        1.3494661411
 H         -0.1433753735       -1.1931164556        2.1023991042
 H          0.6324666964       -2.2652462634        0.9303267802
 H         -1.1274590317       -2.2493912826        1.0813117268
 H         -1.3870601855       -1.6716192881       -1.4403784608
 H          0.3654126354       -1.8908938095       -1.4842695688
 H         -0.3459765973       -0.4162848872       -2.1240659894
 H          2.7029677222        0.4705544701       -0.5133355851
