  20
        -27.12035879
 C         -1.7567900245        1.5382247796        0.1063570767
 C         -1.3729893222        0.3061476872       -0.7057287443
 C         -0.3023556624       -0.5750577024       -0.0344536304
 C         -0.7626930854       -1.0901213919        1.3283803155
 C          0.0250182044       -1.7586308740       -0.9552797583
 C          0.9670424872        0.2429961341        0.1404745636
 O          1.4383410403        0.7116613823       -1.0251221963
 O          1.5251422444        0.4631828391        1.1816744517
 H         -0.8774022236        2.1289142553        0.3534492028
 H         -2.2537853952        1.2602624260        1.0316838461
 H         -2.4370796747        2.1625887487       -0.4687298476
 H         -0.9915014305        0.6240726228       -1.6779052158
 H         -2.2616891408       -0.3049943506       -0.8777093088
 H         -0.0420480013       -1.8033992360        1.7204978373
 H         -1.7283735679       -1.5806835587        1.2364912165
 H         -0.8409504645       -0.2749013364        2.0412926561
 H         -0.8593829255       -2.3780608553       -1.0845944361
 H          0.8145272620       -2.3702374373       -0.5236580171
 H          0.3515039301       -1.4058478402       -1.9301716334
 H          2.2507820967        1.2189951930       -0.8727519416
