  20
        -27.12035879
 C         -1.7567900245        1.5382247796        0.1063570767
 C         -1.3729893222        0.3061476872       -0.7057287443
 C         -0.3023556624       -0.5750577024       -0.0344536304
 C         -0.7626930854       -1.0901213919        1.3283803155
 C          0.0250182044       -1.7586308740       -0.9552797583
 C          0.9670424872        0.2429961341        0.1404745636
 O          1.4383410403        0.7116613823       -1.0251221963
 O          1.5251422444        0.4631828391        1.1816744517
 H         -0.8774022236        2.1289142553        0.3534492028
 H         -2.2537853952        1.2602624260        1.0316838461
 H         -2.4370796747        2.1625887487       -0.4687298476
 H         -0.9915014305        0.6240726228       -1.6779052158
 H         -2.2616891408       -0.3049943506       -0.8777093088
 H         -0.0420480013       -1.8033992360        1.7204978373
 H         -1.7283735679       -1.5806835587        1.2364912165
 H         -0.8409504645       -0.2749013364        2.0412926561
 H         -0.8593829255       -2.3780608553       -1.0845944361
 H          0.8145272620       -2.3702374373       -0.5236580171
 H          0.3515039301       -1.4058478402       -1.9301716334
 H          2.2507820967        1.2189951930       -0.8727519416
  20
        -27.11986890
 C         -1.8432449922        1.4986445003        0.3079014142
 C         -1.4341011879        0.3876218769       -0.6523463313
 C         -0.3144192378       -0.5203427399       -0.1171545520
 C         -0.6916256656       -1.1797737616        1.2085803865
 C         -0.0078018403       -1.6067770701       -1.1623172228
 C          0.9664674553        0.2890854312        0.0067408354
 O          1.7606556419       -0.1267415172        1.0016289207
 O          1.2905598072        1.1849356143       -0.7276451382
 H         -2.5763961266        2.1446619346       -0.1694536235
 H         -0.9817438534        2.1051564712        0.5765694836
 H         -2.2872503894        1.0968711787        1.2149886343
 H         -1.0823627812        0.8410221053       -1.5807434729
 H         -2.3028890367       -0.2317861184       -0.8841039006
 H         -1.6495409625       -1.6844947003        1.1057296554
 H         -0.7654149280       -0.4448180690        2.0048002574
 H          0.0589035620       -1.9115855325        1.4947065664
 H         -0.8891203265       -2.2240842335       -1.3196019224
 H          0.8061883075       -2.2440823532       -0.8234663914
 H          0.2749693171       -1.1533486156       -2.1096166845
 H          2.5799545129        0.3931408572        1.0101478038
  20
        -27.11986661
 C         -1.7408859640        1.5037039256       -0.6402747924
 C         -1.5356565645        0.3706007641        0.3586870420
 C         -0.3277991822       -0.5280521212        0.0435994195
 C         -0.2331533291       -1.6314726975        1.1111566236
 C         -0.4300112586       -1.1644568446       -1.3414045424
 C          0.9458561253        0.2884453154        0.1939043109
 O          1.9021193392       -0.0517510791       -0.6792237280
 O          1.1273896096        1.1305981589        1.0335847711
 H         -1.9888314879        1.1232117941       -1.6277553387
 H         -0.8433634955        2.1132453746       -0.7138097702
 H         -2.5571100857        2.1417079526       -0.3094055145
 H         -2.4322930799       -0.2514523102        0.3935653317
 H         -1.3821593892        0.8019025032        1.3494661411
 H         -0.1433753735       -1.1931164556        2.1023991042
 H          0.6324666964       -2.2652462634        0.9303267802
 H         -1.1274590317       -2.2493912826        1.0813117268
 H         -1.3870601855       -1.6716192881       -1.4403784608
 H          0.3654126354       -1.8908938095       -1.4842695688
 H         -0.3459765973       -0.4162848872       -2.1240659894
 H          2.7029677222        0.4705544701       -0.5133355851
  20
        -27.11986212
 C         -1.8629485281        1.4826082059        0.3638249042
 C         -1.4417141106        0.4080612960       -0.6320545955
 C         -0.3161063966       -0.5091095585       -0.1276896334
 C         -0.6800964157       -1.1999039105        1.1866498084
 C         -0.0157043805       -1.5716307912       -1.1989802616
 C          0.9672966705        0.2935864020        0.0116215948
 O          1.8270931191       -0.2443904426        0.8872472570
 O          1.2426033523        1.2808787228       -0.6173317888
 H         -1.0072013466        2.0859281911        0.6556690212
 H         -2.3076215281        1.0468723426        1.2546623572
 H         -2.5991678260        2.1387675455       -0.0944535609
 H         -1.0931754590        0.8964445534       -1.5437337618
 H         -2.3048399229       -0.2103843558       -0.8866391515
 H          0.0741248413       -1.9371479373        1.4477374856
 H         -1.6387151799       -1.7027993852        1.0817865791
 H         -0.7469822778       -0.4829106543        1.9998801866
 H          0.2530381493       -1.0978901520       -2.1405546453
 H         -0.8957032204       -2.1901317980       -1.3589974806
 H          0.8053497244       -2.2110082101       -0.8823445723
 H          2.6453550161        0.2765527032        0.9089119065
  20
        -27.11983862
 C         -1.7869150091        1.5336352734        0.1705378421
 C         -1.4124364412        0.3371997229       -0.6969085634
 C         -0.3081430652       -0.5504264881       -0.0937011228
 C         -0.7150060766       -1.1315695150        1.2582892188
 C          0.0028249178       -1.6922234952       -1.0749020261
 C          0.9645512683        0.2761176701        0.0021142682
 O          1.5915356524        0.1688814854        1.1793616392
 O          1.4074568188        0.9492833254       -0.8916011273
 H         -0.9115005465        2.1456391384        0.3757821115
 H         -2.2224973542        1.2189145292        1.1152443975
 H         -2.5166965534        2.1502730475       -0.3490976935
 H         -1.0574540181        0.7019370129       -1.6626009790
 H         -2.2971969266       -0.2787501660       -0.8703382214
 H         -1.6641426854       -1.6536943444        1.1601822583
 H         -0.8178083057       -0.3518919360        2.0069409339
 H          0.0346171424       -1.8360715428        1.6091133901
 H         -0.8882441978       -2.2943033761       -1.2352013104
 H          0.7879427583       -2.3332426121       -0.6797045974
 H          0.3313531146       -1.2891896420       -2.0297786318
 H          2.4064862850        0.6957999168        1.1702623260
  20
        -27.11932741
 C         -2.5887501669        0.6731660679       -0.4460232578
 C         -1.0894621960        0.9254536253       -0.3419103623
 C         -0.2579964669       -0.3045842661        0.0780657513
 C         -0.6863560086       -0.8419908603        1.4427719670
 C         -0.3227777290       -1.4160819862       -0.9761751550
 C          1.1902201569        0.1560523679        0.1695843666
 O          1.6523714667        0.6313646054       -0.9968745671
 O          1.8801008053        0.1162312256        1.1525617141
 H         -2.8078889080       -0.0969803539       -1.1802906499
 H         -3.0869805745        1.5880548623       -0.7588647965
 H         -3.0049269142        0.3738031482        0.5117263397
 H         -0.9162727241        1.7205030410        0.3882740079
 H         -0.7187131649        1.2745668695       -1.3075215209
 H         -0.7136019790       -0.0399989100        2.1760280903
 H          0.0269261585       -1.5865302789        1.7873282949
 H         -1.6675550390       -1.3030666288        1.3813088479
 H         -0.0471761267       -1.0301357417       -1.9541736323
 H         -1.3265520964       -1.8283757595       -1.0272135370
 H          0.3614058343       -2.2204672633       -0.7133690441
 H          2.5761429591        0.9099363864       -0.8964957243
  20
        -27.11932449
 C         -2.6541000192        0.7268550763       -0.1529587558
 C         -1.1626395750        1.0022040666       -0.0120254791
 C         -0.2644331091       -0.2453284599       -0.0419044823
 C         -0.5739368941       -1.1980337735        1.1188958610
 C         -0.3736760646       -0.9941857079       -1.3752378233
 C          1.1778409198        0.2195109610        0.1129710371
 O          2.0527391293       -0.7968871993        0.0943391357
 O          1.5386872954        1.3588930650        0.2411792380
 H         -2.8788903309        0.2414522211       -1.0988917416
 H         -3.1988380396        1.6675365652       -0.1211431125
 H         -3.0188437786        0.1010334381        0.6571431929
 H         -0.9822627606        1.5275391486        0.9280125079
 H         -0.8436171159        1.6692120457       -0.8154942906
 H          0.1486690957       -2.0098362537        1.1389899394
 H         -1.5659683654       -1.6243564848        0.9988604180
 H         -0.5323455891       -0.6687330691        2.0685361303
 H         -1.3670861510       -1.4199902260       -1.4852839501
 H          0.3522809297       -1.8024152246       -1.4106156167
 H         -0.1872642395       -0.3196311928       -2.2082668692
 H          2.9550368273       -0.4560106334        0.1961302703
  20
        -27.11868721
 C         -2.6051052807        0.7051627545       -0.3978148135
 C         -1.1103802138        0.9588631594       -0.2491578334
 C         -0.2568977691       -0.3000891450        0.0196932227
 C         -0.6329727041       -0.9684527854        1.3394478237
 C         -0.3629293919       -1.3037904727       -1.1352025723
 C          1.1849724025        0.1903171020        0.0339496223
 O          1.8229482368       -0.0191121652        1.1905149298
 O          1.7249500816        0.7281960241       -0.8975932456
 H         -3.1137162552        1.6505463035       -0.5724816223
 H         -3.0212616944        0.2607923748        0.5021855220
 H         -2.8124544511        0.0520035736       -1.2405449968
 H         -0.9523591543        1.6596638769        0.5750277248
 H         -0.7334059758        1.4297254227       -1.1593871115
 H         -1.6353491765       -1.3828530492        1.2747657715
 H         -0.5996332455       -0.2536968733        2.1576635819
 H          0.0571278332       -1.7773132287        1.5651134483
 H         -0.0937583988       -0.8246469201       -2.0730262940
 H         -1.3739282635       -1.6934302200       -1.2085809203
 H          0.3135710117       -2.1396663905       -0.9678410958
 H          2.7310449127        0.3190579249        1.1339333965
