%nprocshared=4
%mem=8000mb
%chk=14.chk
%nprocshared=4
%mem=8000mb
#T wB97XD/def2svpp opt=tight freq int(grid=ultrafine) scf=(verytight,qc) Volume=tight

Monomer

0 1
C        1.869996   -1.365125    0.123864
C        1.343259   -0.182141   -0.684695
C        0.158328    0.584679   -0.050078
C        0.546739    1.213985    1.290677
C       -0.307755    1.681874   -1.025198
C       -1.000924   -0.379534    0.177081
O       -1.382478   -1.000546   -0.954022
O       -1.547529   -0.592869    1.226913
H        1.081284   -2.117403    0.303052
H        2.267724   -1.053682    1.104138
H        2.686926   -1.867784   -0.420933
H        1.034826   -0.534789   -1.683738
H        2.158108    0.547406   -0.847206
H       -0.285597    1.809247    1.700493
H        1.416986    1.879522    1.153286
H        0.801202    0.452396    2.044225
H        0.508947    2.407552   -1.184380
H       -1.175467    2.231686   -0.620650
H       -0.590315    1.257845   -2.002462
H       -2.122432   -1.587108   -0.718854


