  19
        -32.10196307
 O          0.4629407564        1.7963075980        1.7545300182
 C         -0.3972866682        0.8712682732        1.1458224005
 C         -0.0834798046        0.6140229350       -0.3557287879
 C          0.5717063565        1.8781394637       -0.9703671353
 O         -0.1712585848        3.0341756911       -0.7275016052
 C          0.8167275649       -0.6027265837       -0.5490913038
 Br         2.4789540613       -0.4949307014        0.4664905876
 C         -1.3834010062        0.3799634681       -1.1211267137
 Br        -2.4643197884       -1.0546239486       -0.3606366455
 H          1.3217518447        1.3857361269        1.9168753209
 H         -1.3955333263        1.3102489894        1.2320123520
 H         -0.4032972297       -0.0828283722        1.6876723380
 H          0.6266522599        1.7679817375       -2.0579052573
 H          1.5942319524        1.9807576206       -0.5837031609
 H         -0.1115670216        3.2254753002        0.2198552091
 H          1.1104342400       -0.7129375627       -1.5935931015
 H          0.3212224968       -1.5130619881       -0.2089807479
 H         -1.1897775713        0.0963597096       -2.1557348737
 H         -1.9952019972        1.2814512946       -1.0993573795
