  19
        -32.09926098
 O         -0.4976166009        0.6238634867        2.8047646919
 C         -0.3146687285        1.4217474731        1.6555445125
 C          0.2271210775        0.5365215740        0.5192934228
 C          0.5599720066        1.4208661663       -0.7118559484
 O         -0.2929476958        2.5133387408       -0.8902669211
 C          1.5023101058       -0.1262173207        1.0412816442
 Br         2.4022096800       -1.2029178402       -0.3061086088
 C         -0.7729687079       -0.5725132576        0.1963883889
 Br        -2.4412072229        0.0760815933       -0.5726750242
 H         -0.9024652895        1.1600570220        3.4931936254
 H          0.4013780817        2.2322366205        1.8474404096
 H         -1.2608767038        1.8774448303        1.3390472039
 H          0.5930538173        0.7889988362       -1.6099978330
 H          1.5530603710        1.8586136988       -0.5712148783
 H         -1.1515875784        2.2101415855       -1.2131594759
 H          1.2780613113       -0.7900585021        1.8749444455
 H          2.2227422619        0.6265619486        1.3589230426
 H         -1.0493600158       -1.1015877017        1.1083221796
 H         -0.3642269051       -1.2713476403       -0.5335604683
