  19
        -32.09954201
 O         -1.3524068641        2.2577684093        1.7504562005
 C         -0.3076107921        1.3407403521        1.8331049981
 C          0.2208674619        0.8759094545        0.4500007787
 C          0.9965773408        2.0273948058       -0.2222781313
 O          0.1679300973        3.1639515490       -0.3445202086
 C          1.1608377618       -0.2985322326        0.6959908824
 Br         2.0341603161       -0.9443110116       -0.9249158593
 C         -0.9439668430        0.4974543443       -0.4608113545
 Br        -2.0042274692       -0.9781663162        0.2375897266
 H         -1.0648480082        2.9946989611        1.1922210905
 H         -0.7044645072        0.4823088572        2.3831627624
 H          0.5384953379        1.7526069137        2.4064360862
 H          1.3428162586        1.7046612722       -1.2127721853
 H          1.8787175002        2.2644102142        0.3913084873
 H          0.6426169488        3.8493530164       -0.8247445327
 H          0.6199580726       -1.1526806976        1.1022770859
 H          1.9629511355       -0.0189985397        1.3786962067
 H         -0.5890706559        0.1816299632       -1.4420738602
 H         -1.6245820665        1.3410464298       -0.5638822653
