  19
        -32.09940659
 O         -0.1846035745        2.0487538283        2.3894363062
 C         -0.7511108267        0.9162470225        1.7805512943
 C         -0.0046525901        0.4330181897        0.5097490749
 C         -0.0079820101        1.5523306184       -0.5583432053
 O          0.7113991878        2.6826081686       -0.1605134335
 C          1.4395827283        0.1133955409        0.9018286260
 Br         2.4566590662       -0.7822801240       -0.5052031597
 C         -0.6790710674       -0.8274126165       -0.0238618575
 Br        -2.5662275193       -0.5803809210       -0.4325454956
 H          0.6104900784        1.8056455426        2.8751723860
 H         -1.7638040944        1.2204763243        1.5021905849
 H         -0.8283697021        0.0844473014        2.4945096013
 H         -1.0478001805        1.8114268649       -0.8016141775
 H          0.4786111486        1.1921097715       -1.4705522933
 H          0.3010148611        3.0377277824        0.6418723394
 H          1.4837708401       -0.5484938426        1.7678918910
 H          1.9802984252        1.0401180846        1.0979577445
 H         -0.6329631632       -1.6360681417        0.7069609635
 H         -0.2187274190       -1.1534293925       -0.9558280762
