  19
        -32.10019164
 O          0.5473662485        1.4612630186        2.3472098234
 C         -0.2014272197        0.5239433261        1.6075753177
 C          0.1099631123        0.7116650588        0.1157457210
 C         -0.2922385235        2.1348851381       -0.3113876280
 O          0.0406098375        2.3151097506       -1.6702780051
 C          1.6150264715        0.5925992265       -0.1260628463
 Br         2.3246822170       -1.1703169656        0.2759229330
 C         -0.6177776316       -0.3205939643       -0.7391035413
 Br        -2.5473600277       -0.2646901031       -0.5222379755
 H          0.3783006810        1.3236504013        3.2842934915
 H         -1.2763211908        0.6721568762        1.7785716540
 H          0.0575483378       -0.5028734329        1.9037627358
 H          0.2390990431        2.8541555675        0.3245218577
 H         -1.3711233168        2.2639998401       -0.1529458122
 H         -0.2669325245        3.1815421370       -1.9527655268
 H          2.1432199758        1.2883255511        0.5237715952
 H          1.8497748445        0.7956136955       -1.1693591614
 H         -0.3198422015       -1.3359316702       -0.4794272379
 H         -0.4254096500       -0.1298309264       -1.7944889727
