  19
        -32.09950697
 O         -1.2868746545        2.3825208345        1.7718268904
 C         -0.3316736299        1.3706479658        1.8671227065
 C          0.2074831295        0.9150049933        0.4854430838
 C          0.9826011792        2.0861299589       -0.1726218165
 O          0.2229273507        3.2565852173       -0.3511304027
 C          1.1671904855       -0.2450054376        0.7207688567
 Br         1.9486937580       -0.9389086529       -0.9285349432
 C         -0.9611559638        0.5263944260       -0.4171786705
 Br        -1.9210575821       -1.0567423297        0.2066010070
 H         -0.8828875721        3.1390155466        1.3186384230
 H         -0.8282419081        0.5325725314        2.3652066820
 H          0.5194627137        1.6848260734        2.4900973387
 H          1.4108533743        1.7550492874       -1.1260948881
 H          1.8057186440        2.3730609241        0.4894272641
 H         -0.3466150619        3.1648812685       -1.1222564669
 H          0.6596017093       -1.0886957787        1.1872054519
 H          2.0047772039        0.0645911309        1.3449854957
 H         -0.6254037440        0.2947738521       -1.4287248260
 H         -1.7039444075        1.3242301375       -0.4332686187
