  19
        -32.10041290
 O         -0.0665448441        2.1872551204        2.2858756164
 C         -0.8600477780        1.3326385206        1.4911008893
 C         -0.0206578597        0.8348779268        0.2961534798
 C          0.7585770092        2.0306996441       -0.3145777022
 O         -0.0465939510        3.1565389985       -0.5087575973
 C          0.9478918022       -0.2176402011        0.8218200420
 Br         2.2345925961       -0.8062503647       -0.5177069317
 C         -0.9305520931        0.2826054475       -0.7926836623
 Br        -2.1851673649       -1.0592132851       -0.1353632668
 H         -0.5384744539        2.3866380825        3.1002104957
 H         -1.7419646800        1.8685959086        1.1115110171
 H         -1.2086560346        0.4717971561        2.0753485153
 H          1.1380969442        1.7535611166       -1.3014498494
 H          1.6095363275        2.2626072493        0.3362335968
 H         -0.1970475113        3.5649347356        0.3521184677
 H          0.4168176812       -1.1142373412        1.1442488017
 H          1.5281337115        0.1860924662        1.6506510999
 H         -0.3506899248       -0.2048675895       -1.5764393620
 H         -1.5293517552        1.0834721282       -1.2253799019
