  19
        -32.10204565
 O         -0.5433226834        2.0440059939        2.2853777029
 C          0.2988541197        1.0188846015        1.8527173392
 C         -0.0937348324        0.4331291638        0.4710714902
 C          0.2510998167        1.4348818695       -0.6442834457
 O         -0.4261737140        2.6525847497       -0.4097974319
 C          0.6342015418       -0.8856253301        0.2312190772
 Br         2.5708130471       -0.7176771238        0.3152641696
 C         -1.5996604033        0.1741811321        0.5104725861
 Br        -2.2856250682       -0.6494601201       -1.1151977439
 H         -0.5554168639        2.7266192345        1.5984235400
 H          0.2326140087        0.2351983221        2.6142795224
 H          1.3419458375        1.3637220500        1.8044105142
 H         -0.0413402080        1.0126554826       -1.6160190277
 H          1.3370378914        1.6022534354       -0.6552036866
 H         -0.2526750778        3.2526396263       -1.1411163394
 H          0.4150093713       -1.2842261227       -0.7596506989
 H          0.3635714039       -1.6216440614        0.9885698786
 H         -2.1341362739        1.1152255112        0.6283659785
 H         -1.8573401980       -0.4971421749        1.3288279140
