  19
        -32.10176713
 O         -1.3075441579        2.1794158543        1.7693418000
 C         -0.2951266994        1.2098591557        1.8317740818
 C          0.2568026824        0.7992696771        0.4400946232
 C          0.9806639187        2.0183456816       -0.1862517676
 O          0.1240082724        3.0913037386       -0.4351605449
 C          1.2238705970       -0.3542132330        0.6810442655
 Br         2.1579616864       -0.9395477727       -0.9298796331
 C         -0.8602063856        0.4045926961       -0.5206279935
 Br        -2.1351351123       -0.8677442793        0.2465781039
 H         -2.1378214838        1.7579230004        1.5162155889
 H         -0.6401696289        0.3179011094        2.3690496302
 H          0.5155137833        1.6604134135        2.4125952698
 H          1.4065346636        1.7468690711       -1.1564763737
 H          1.8044531045        2.3141611768        0.4821488947
 H         -0.3441161380        3.3084135935        0.3865243771
 H          0.6955159601       -1.2322829173        1.0547708270
 H          1.9995439758       -0.0695056648        1.3912269952
 H         -0.4523695534       -0.0719219389       -1.4119519701
 H         -1.4327439070        1.2834165398       -0.8179687682
