  11
        -10.49659902
 C          1.2681945305        0.2699742157        0.0000011832
 C          0.0037603834       -0.5819119792       -0.0000005008
 C         -1.2721300005        0.2725741845       -0.0000062336
 H          1.3005862824        0.9040304695        0.8835607752
 H          1.2989629642        0.9064064527       -0.8819041431
 H          2.1548931909       -0.3605359006       -0.0016704884
 H          0.0170012753       -1.2302631863        0.8780341991
 H          0.0170297275       -1.2303116664       -0.8779996969
 H         -1.8832267888        0.0707922863        0.8759444858
 H         -1.8786206907        0.0776517715       -0.8806969266
 H         -1.0245394788        1.3313199087        0.0047979486
