  11
        -10.50082816
 C          1.2606735130        0.2720856234        0.0000015020
 C         -0.0000070339       -0.5837201853       -0.0000001617
 C         -1.2606669969        0.2720885672       -0.0000058533
 H          2.1505658906       -0.3533231332        0.0000088255
 H          1.2883202308        0.9088574688        0.8818054402
 H          1.2883094782        0.9087434588       -0.8818646316
 H         -0.0000097733       -1.2286230303        0.8817121273
 H         -0.0000009307       -1.2286903026       -0.8816644099
 H         -2.1505582494       -0.3533037361        0.0001452070
 H         -1.2883913199        0.9087445414       -0.8818387898
 H         -1.2882291563        0.9088586903        0.8817500122
