%nprocshared=4
%mem=8000mb
%chk=4.chk
%nprocshared=4
%mem=8000mb
#T wB97XD/def2svpp opt=tight freq int(grid=ultrafine) scf=(verytight,qc) Volume=tight

Monomer

0 1
C        1.273842   -0.258800    0.000032
C        0.000000    0.583527   -0.000026
C       -1.273842   -0.258800   -0.000009
H        2.177804    0.374472    0.000020
H        1.319819   -0.910549   -0.891092
H        1.319789   -0.910473    0.891213
H        0.000014    1.248728   -0.882857
H       -0.000014    1.248805    0.882747
H       -2.177804    0.374472   -0.000053
H       -1.319819   -0.910471    0.891172
H       -1.319789   -0.910552   -0.891133


