  42
        -47.34838480
 C         -4.1810666199       -0.8001240114       -0.1809573615
 C         -2.8212128573       -0.1008823716       -0.0981452298
 C         -2.5283593709        0.2822038480        1.3549676238
 C         -1.7069369953       -1.0216635906       -0.6484520782
 N         -1.5450559153       -2.3188457274       -0.0134171334
 C         -2.8864883749        1.1804394794       -0.9694990707
 N         -1.6658013973        1.9415945487       -1.1322594532
 H         -4.3775594134       -1.1428032774       -1.1954809487
 H         -4.9747249162       -0.1141279512        0.1070283119
 H         -4.2228847996       -1.6576698694        0.4890174266
 H         -2.5354145983       -0.5957408183        1.9993840958
 H         -3.2899807839        0.9681577715        1.7205171501
 H         -1.5555940586        0.7621032423        1.4417247006
 H         -0.7487506592       -0.5070344601       -0.5461220490
 H         -1.8908316681       -1.2041593862       -1.7126250847
 H         -2.3859896118       -2.8744473210       -0.1310629175
 H         -1.3955854400       -2.1933808561        0.9825105277
 H         -3.6301069591        1.8545702879       -0.5320033558
 H         -3.2348469053        0.9082974073       -1.9709589372
 H         -0.9782644055        1.4022093297       -1.6455798297
 H         -1.2608471928        2.1697008807       -0.2303947390
 C          3.8989235824        0.7865301987       -1.1764807831
 C          2.9815304047        0.3117371415       -0.0469650127
 C          3.8026515739        0.1491337036        1.2336991695
 C          1.8683448831        1.3692672539        0.1511361053
 N          0.9077563305        1.1046139565        1.2082283791
 C          2.3577238447       -1.0362612271       -0.4685290692
 N          1.5255739059       -1.6188091200        0.5785821685
 H          4.3484231936        1.7438433476       -0.9232802760
 H          3.3387214826        0.9058245258       -2.1013246254
 H          4.6979093633        0.0683189561       -1.3494252514
 H          4.2736763040        1.0937429057        1.4989546781
 H          4.5841023236       -0.5949794237        1.0908763531
 H          3.1747814421       -0.1671813914        2.0632829237
 H          1.3068216444        1.4493178486       -0.7864786630
 H          2.3278607345        2.3439540341        0.3398470922
 H          1.3384496625        1.2694663626        2.1126402294
 H          0.6784753164        0.1105747343        1.1688865334
 H          3.1682796211       -1.7125780517       -0.7858971126
 H          1.7206520795       -0.8597781097       -1.3396793099
 H          2.0995576991       -2.1011494140        1.2611168704
 H          0.8728534412       -2.2881109279        0.1848436121
