  42
        -47.34842804
 C         -2.5589001140        1.0378983114       -1.2686384108
 C         -2.9083572742        0.0729983829       -0.1328092759
 C         -4.4303358479        0.0173108758        0.0290474990
 C         -2.4039807478       -1.3513795554       -0.4759710895
 N         -0.9812647986       -1.5191097561       -0.6906494466
 C         -2.2554933031        0.5965022693        1.1701006953
 N         -2.4486282218       -0.1909124614        2.3746643447
 H         -1.4815922847        1.1366124080       -1.3879154898
 H         -2.9673927271        2.0249416869       -1.0619792598
 H         -2.9816861334        0.6832025282       -2.2068466119
 H         -4.8993537020       -0.2746926579       -0.9080618186
 H         -4.8186823770        0.9924689351        0.3173954604
 H         -4.7214904249       -0.7087503447        0.7866944106
 H         -2.9113705535       -1.6854133443       -1.3863622334
 H         -2.6973610172       -2.0400794490        0.3250718244
 H         -0.4608046125       -1.2060272710        0.1218494143
 H         -0.6795841972       -0.9462620077       -1.4711044695
 H         -2.6438913691        1.5987069856        1.3745106905
 H         -1.1762790483        0.6884393129        1.0195584589
 H         -2.1093242242       -1.1366936629        2.2337824622
 H         -3.4349342200       -0.2494279346        2.6036283699
 C          4.2541910469       -0.8282941793       -0.8766033771
 C          3.1277511315        0.0413935357       -0.3112800611
 C          3.7232964182        1.3542175320        0.2037239663
 C          2.1113520379        0.3099338058       -1.4483151859
 N          1.0031141739        1.1921747812       -1.1332574804
 C          2.4584726151       -0.7451758892        0.8336915657
 N          1.3638640799       -0.0158627594        1.4692856308
 H          4.7593730758       -0.3127437006       -1.6899565864
 H          3.8574980118       -1.7658185158       -1.2593340009
 H          4.9890221811       -1.0544884770       -0.1065892119
 H          4.2470628273        1.8667295150       -0.6008318398
 H          4.4342601260        1.1597251748        1.0048076120
 H          2.9517411142        2.0201941649        0.5843828462
 H          1.6849339579       -0.6516088352       -1.7524520759
 H          2.6422617741        0.7267088962       -2.3092761522
 H          1.3318145548        2.1483660517       -1.0458096982
 H          0.6376906203        0.9158884312       -0.2239820574
 H          3.2397478799       -1.0353208458        1.5562882957
 H          2.0341650682       -1.6634895286        0.4170600653
 H          1.7276712656        0.7779133544        1.9873679347
 H          0.8947421117       -0.6149960661        2.1410610101
