  42
        -47.34927904
 C         -3.9899236797        0.9399238185        0.5598420079
 C         -3.0988930582       -0.1662573342       -0.0102223899
 C         -3.9222308804       -1.4505492316       -0.1436597175
 C         -2.5902407379        0.2379481845       -1.4212923436
 N         -1.7818320105        1.4293367396       -1.5393312539
 C         -1.9205204957       -0.3831525821        0.9657689441
 N         -0.9565849416       -1.4117769576        0.6089402277
 H         -4.4193321492        0.6297358281        1.5103278900
 H         -4.8030430369        1.1653970294       -0.1273440148
 H         -3.4188862467        1.8502055327        0.7314896471
 H         -3.3436969164       -2.2435752782       -0.6149856023
 H         -4.8018146347       -1.2727337408       -0.7583477940
 H         -4.2522122650       -1.7965261173        0.8345959029
 H         -3.4682815033        0.3721744848       -2.0635552747
 H         -2.0108246444       -0.5900538620       -1.8440305895
 H         -0.8964727339        1.3487210974       -1.0392217766
 H         -2.2772742500        2.2345902692       -1.1753071422
 H         -2.3196707439       -0.6378770504        1.9524926902
 H         -1.3672108906        0.5547847896        1.0604461876
 H         -0.5949855436       -1.2220618052       -0.3203807707
 H         -1.4053733955       -2.3217685281        0.5864239898
 C          4.0647863669       -0.5241084488       -1.2272188109
 C          3.1079783658        0.0315629564       -0.1694183093
 C          3.7865186483        1.1777649895        0.5833955700
 C          1.8328990446        0.5351543851       -0.8848749710
 N          0.9396348331        1.3715428460       -0.0993881399
 C          2.7725664975       -1.1039698714        0.8240992936
 N          1.7675256807       -0.7076931246        1.8069429552
 H          3.5737980319       -1.2893380571       -1.8251206419
 H          4.9407508825       -0.9662535348       -0.7569529966
 H          4.3970786130        0.2692106515       -1.8929482237
 H          3.9175528430        2.0409998813       -0.0670001238
 H          4.7661826087        0.8645884091        0.9373921091
 H          3.1909725370        1.4640810895        1.4466734096
 H          1.2621192529       -0.3365134281       -1.2224114374
 H          2.1196179538        1.1010206912       -1.7761210856
 H          1.3578258305        2.2868781226        0.0318609743
 H          0.8460698993        0.9522922521        0.8220538119
 H          3.6974534678       -1.3630820393        1.3482133365
 H          2.4621149134       -1.9891437942        0.2483183719
 H          1.9329164968       -1.1799972998        2.6877841307
 H          0.8372829883       -0.9857202405        1.4916556777
