  42
        -47.34830955
 C         -3.5141935335        0.1762030147       -1.7798580210
 C         -3.3000776284        0.1930098509       -0.2643736959
 C         -4.5945354994        0.6468663755        0.4158735488
 C         -2.9584113602       -1.2350507356        0.2392143060
 N         -1.7546696293       -1.8604195549       -0.2606141897
 C         -2.1543889778        1.1850738997        0.0485339675
 N         -1.7628066238        1.3275406053        1.4387297258
 H         -2.5971661851       -0.0944056064       -2.2997400054
 H         -3.8203070026        1.1597039438       -2.1308599184
 H         -4.2881249766       -0.5406441883       -2.0477312440
 H         -4.5015354115        0.6150620809        1.5001771792
 H         -5.4187639352       -0.0050464397        0.1342894510
 H         -4.8451454053        1.6642720766        0.1202136298
 H         -3.8001575669       -1.8893126724       -0.0159708636
 H         -2.8847303979       -1.2190671598        1.3318267042
 H         -0.9190389191       -1.3390503247        0.0076244190
 H         -1.7779033202       -1.9152003766       -1.2724453855
 H         -2.4444830957        2.1776491588       -0.3113717295
 H         -1.2636938069        0.8760389245       -0.5037637617
 H         -1.4591039722        0.4295564493        1.8005267165
 H         -2.5522961084        1.6364000476        1.9960959762
 C          3.8708547769        0.2828475296       -1.8048756313
 C          3.1485868195        0.2015129953       -0.4567712447
 C          3.1611208658        1.5844992369        0.1987177049
 C          1.6942991999       -0.2610125977       -0.7162784713
 N          0.8308731856       -0.3870183541        0.4412318031
 C          3.8927449320       -0.8281282794        0.4159593375
 N          3.3291755797       -0.9512820699        1.7551261312
 H          4.8980065724        0.6161070206       -1.6708675501
 H          3.3668452282        0.9864899550       -2.4631484309
 H          3.8867142182       -0.6900173243       -2.2913084369
 H          2.7007862664        2.3145061171       -0.4638225719
 H          4.1834460685        1.9006907123        0.3988306138
 H          2.6100906694        1.5847563888        1.1362664485
 H          1.7264340230       -1.2411499121       -1.2036595752
 H          1.2253679924        0.4434876242       -1.4116956368
 H          0.6777478020        0.5238151304        0.8630602568
 H          1.3007792888       -0.9659450807        1.1336815210
 H          4.9626716825       -0.5576642834        0.4340928049
 H          3.8087453208       -1.8090795199       -0.0612905638
 H          3.5225667843       -0.1142129439        2.2949786069
 H          3.7577878830       -1.7321939888        2.2395903489
