  42
        -47.34837091
 C         -3.9113788586       -0.8475776750       -1.0807322832
 C         -2.8302309657       -0.1484156825       -0.2526625165
 C         -3.2686091781       -0.0880663750        1.2137485488
 C         -1.4861591442       -0.8983168639       -0.3874471096
 N         -1.3902315694       -2.2155570601        0.2237730498
 C         -2.6442033319        1.2916386396       -0.8075156075
 N         -1.8573625062        2.2236101572       -0.0321475452
 H         -3.6432797825       -0.8478713934       -2.1354038756
 H         -4.8660375551       -0.3375023442       -0.9704115552
 H         -4.0448320810       -1.8798818108       -0.7595753219
 H         -3.5877824359       -1.0678618224        1.5664070550
 H         -4.1104581356        0.5931578130        1.3250949524
 H         -2.4534131111        0.2575875445        1.8475756533
 H         -0.7031243952       -0.2869104755        0.0620888384
 H         -1.2564453083       -1.0184254597       -1.4507014471
 H         -2.0622213332       -2.8492530559       -0.1974244096
 H         -1.6102123370       -2.1499363967        1.2124703202
 H         -3.6368428984        1.7381200319       -0.9324407896
 H         -2.1866693109        1.2221935186       -1.7995290611
 H         -0.9059638404        1.8982378067        0.1218071887
 H         -2.2785091999        2.3742806867        0.8771202512
 C          3.7838314546        0.3317425400       -1.5128222410
 C          2.9692564951        0.1926735465       -0.2248151470
 C          3.8952074426        0.3642444038        0.9806989552
 C          1.8672452617        1.2785372951       -0.2262855122
 N          1.0370316202        1.3479022022        0.9662422706
 C          2.3169452524       -1.2070814570       -0.2138846901
 N          1.5711562585       -1.4657826260        1.0145097018
 H          4.2574200671        1.3096530839       -1.5591396067
 H          3.1430093069        0.2199803825       -2.3846023397
 H          4.5618033682       -0.4277257433       -1.5588474439
 H          4.3606253943        1.3479754952        0.9607680546
 H          4.6820031495       -0.3875456222        0.9629204007
 H          3.3437368994        0.2605955134        1.9119944049
 H          1.2025017837        1.0837505327       -1.0755227139
 H          2.3234651716        2.2595985000       -0.3855127281
 H          1.5424104831        1.8140102824        1.7126182431
 H          0.8673322078        0.3890957202        1.2751188383
 H          3.1001361093       -1.9603550408       -0.3932726107
 H          1.6139190828       -1.2588371430       -1.0486347484
 H          2.1748017590       -1.8641898971        1.7245880684
 H          0.8130741020       -2.1158232363        0.8328816672
