  42
        -47.34860802
 C         -4.4198296878       -0.4573786515       -0.0071018008
 C         -2.9339020228       -0.1075925060        0.1121859013
 C         -2.7355951368        0.8632145012        1.2786366691
 C         -2.1096534329       -1.3863057908        0.4006451919
 N         -2.0685237138       -2.4013024850       -0.6379507531
 C         -2.4828481826        0.5606521700       -1.2114497638
 N         -1.0868928024        0.9287964344       -1.3292196213
 H         -4.6010412445       -1.1294624653       -0.8445763366
 H         -5.0090915470        0.4425672725       -0.1693872062
 H         -4.7721915463       -0.9387557950        0.9033067429
 H         -3.0659090537        0.4068764125        2.2095910733
 H         -3.3152864389        1.7700241437        1.1173766119
 H         -1.6881467446        1.1371769346        1.3882543187
 H         -2.5096867042       -1.8624649311        1.3008221105
 H         -1.0746901184       -1.1044708831        0.6122658711
 H         -1.7149950514       -2.0036618138       -1.5021132876
 H         -3.0014581714       -2.7534438335       -0.8238823150
 H         -3.0730191332        1.4707941040       -1.3553048870
 H         -2.7168012402       -0.1078207414       -2.0485517233
 H         -0.4927919334        0.1209151129       -1.1764110953
 H         -0.8419609575        1.6104557353       -0.6193084773
 C          4.1680328574        1.0391853575       -0.8982885283
 C          3.0920746348        0.4643023627        0.0271814554
 C          3.7485866337        0.0148582090        1.3349449915
 C          2.0435119690        1.5726924635        0.2934792525
 N          0.9768530892        1.2486698621        1.2234332163
 C          2.4395413026       -0.7297868003       -0.6984745567
 N          1.3961530107       -1.3782456027        0.0905171532
 H          3.7272390742        1.3753697665       -1.8339725967
 H          4.9225915600        0.2881126019       -1.1235854553
 H          4.6599045151        1.8870563057       -0.4275092609
 H          4.2598715965        0.8539947311        1.8026800284
 H          4.4807865996       -0.7674618155        1.1428707227
 H          3.0130224854       -0.3693971405        2.0384501455
 H          1.5739142099        1.8302717489       -0.6613040779
 H          2.5563631596        2.4649188837        0.6645785718
 H          1.3414330398        1.2038970185        2.1696141195
 H          0.6349547004        0.3184755273        0.9892959073
 H          3.2364251255       -1.4329123193       -0.9943042270
 H          1.9702339245       -0.3582796876       -1.6143828515
 H          1.8086219906       -1.8707660567        0.8765280835
 H          0.9131104778       -2.0716397442       -0.4718773483
