  42
        -47.34831592
 C         -3.4917779855        0.1366072726       -1.7818586966
 C         -3.2894442699        0.1972423357       -0.2658841891
 C         -4.5828256354        0.6889632942        0.3896304021
 C         -2.9708786269       -1.2191069370        0.2838289696
 N         -1.7758630455       -1.8784926913       -0.1926533416
 C         -2.1327822858        1.1829444559        0.0259041872
 N         -1.7516883128        1.3644543670        1.4145907543
 H         -2.5734356725       -0.1589066063       -2.2856059300
 H         -3.7848946334        1.1120250904       -2.1650158167
 H         -4.2710077113       -0.5801605254       -2.0341798621
 H         -5.4136730114        0.0397963046        0.1214783901
 H         -4.8173281317        1.7000538882        0.0608974695
 H         -4.4985353559        0.6892506593        1.4751204363
 H         -3.8219597670       -1.8683122972        0.0474860067
 H         -2.8995142951       -1.1694881703        1.3756421018
 H         -0.9328236215       -1.3594048093        0.0562221681
 H         -1.8002117779       -1.9695349463       -1.2018306075
 H         -2.4053566394        2.1674395190       -0.3681580102
 H         -1.2417738536        0.8437315683       -0.5076871014
 H         -1.4706247687        0.4731063354        1.8096674145
 H         -2.5399610884        1.7079835885        1.9531008356
 C          3.8399530434        0.3416555083       -1.8110066427
 C          3.1353594172        0.2119571800       -0.4573519623
 C          3.1448533996        1.5738495263        0.2409437679
 C          1.6817024601       -0.2546330547       -0.7131876068
 N          0.8317537835       -0.4156129569        0.4499549244
 C          3.8986900524       -0.8380779159        0.3735089400
 N          3.3505761801       -1.0100949798        1.7136987588
 H          3.3226924801        1.0622359808       -2.4400266961
 H          3.8566069762       -0.6149979820       -2.3285881541
 H          4.8663239643        0.6781683063       -1.6791314159
 H          2.6664395970        2.3193500779       -0.3907939585
 H          4.1671480783        1.8941444106        0.4345690224
 H          2.6092875284        1.5391209587        1.1867516364
 H          1.7155508482       -1.2219338370       -1.2254925247
 H          1.2005827958        0.4638445356       -1.3855815902
 H          0.6769524435        0.4839582427        0.8947136560
 H          1.3133298109       -1.0080531536        1.1227268377
 H          4.9661774544       -0.5580149682        0.3893641939
 H          3.8188283575       -1.8037774565       -0.1345437925
 H          3.5441150642       -0.1902000727        2.2792484062
 H          3.7896845671       -1.8036911861        2.1671350942
