  42
        -47.34840515
 C         -4.2776626375       -0.6144535840       -1.0238594954
 C         -3.1406962043       -0.1099438034       -0.1303239091
 C         -3.5949166186       -0.1566560333        1.3305714508
 C         -1.8973020231       -1.0205539845       -0.2775566716
 N         -1.3456158340       -1.1758629226       -1.6115365926
 C         -2.8095812040        1.3500235172       -0.5363005817
 N         -1.8507860652        2.0721403042        0.2714575801
 H         -4.4747203594       -1.6681606805       -0.8327235220
 H         -4.0332475254       -0.4925035585       -2.0778750049
 H         -5.1898659380       -0.0547371252       -0.8280015186
 H         -4.4132092752        0.5417205625        1.4982025159
 H         -2.7748600317        0.0983895950        1.9988289257
 H         -3.9392861570       -1.1561278704        1.5880659016
 H         -2.1543857679       -2.0217997154        0.0827346288
 H         -1.0981084522       -0.6299974102        0.3568387286
 H         -1.0839409006       -0.2693327365       -1.9847981137
 H         -2.0375241917       -1.5787234918       -2.2347403787
 H         -3.7421566988        1.9251611295       -0.5307885119
 H         -2.4351150468        1.3564721446       -1.5660713663
 H         -0.9625850601        1.5755386123        0.3270495899
 H         -2.1985014570        2.1749032419        1.2182658702
 C          3.6266409511       -0.1098512341       -1.6044983569
 C          3.0579879150        0.0466270307       -0.1914510978
 C          3.8941781034        1.0766727576        0.5716989393
 C          1.5891334457        0.5150601185       -0.3173479896
 N          0.8713555406        0.7525855043        0.9234957862
 C          3.1165533126       -1.3313084914        0.4970071047
 N          2.6653815934       -1.2918560419        1.8845335900
 H          3.0518662837       -0.8412309514       -2.1678638501
 H          4.6630733134       -0.4395675538       -1.5680822005
 H          3.5883721447        0.8385292958       -2.1350998710
 H          3.8944415567        2.0250028561        0.0380445806
 H          4.9241093236        0.7363687489        0.6648800026
 H          3.4977747155        1.2484497514        1.5699808983
 H          1.0365758036       -0.2526881884       -0.8669165864
 H          1.5596780518        1.4398193411       -0.9020248239
 H          1.2658531910        1.5557653735        1.4034666532
 H          1.0096733535       -0.0549894152        1.5290480481
 H          4.1427917573       -1.7253476681        0.4025835009
 H          2.4488673741       -2.0100357659       -0.0410529443
 H          2.5621919368       -2.2361641385        2.2394176197
 H          3.3543853904       -0.8228680299        2.4635261527
