  42
        -47.34867944
 C         -4.0499599049       -1.1868880090       -0.2073600250
 C         -3.0558169426       -0.0918922816        0.1885601668
 C         -3.5477787840        0.5931834015        1.4658138289
 C         -1.6661928640       -0.7021998685        0.4777189028
 N         -1.0495447574       -1.4709081545       -0.5932992393
 C         -2.9740262037        0.9418045839       -0.9670980232
 N         -2.0924308914        2.0757088117       -0.7987669989
 H         -4.0836789348       -1.9645263484        0.5539817628
 H         -3.7775339864       -1.6431162091       -1.1578749052
 H         -5.0486135270       -0.7693199734       -0.3143677660
 H         -2.8210962739        1.3208127966        1.8217397482
 H         -3.7008591565       -0.1401819515        2.2547514159
 H         -4.4912276373        1.1044562557        1.2843664137
 H         -1.7383360932       -1.3606295635        1.3480930739
 H         -0.9784616965        0.1091566804        0.7282595892
 H         -1.0547173303       -0.9254702017       -1.4498919137
 H         -1.5833442631       -2.3158631288       -0.7695369342
 H         -3.9822192103        1.3335808608       -1.1402927060
 H         -2.6695612913        0.4292699323       -1.8865683102
 H         -1.1228880507        1.7876707320       -0.6783105096
 H         -2.3610500420        2.6163290358        0.0151843079
 C          4.0278439906        1.0231835006       -0.6659726424
 C          3.1157633244        0.1498665383        0.1991431008
 C          3.8094296664       -0.1688778649        1.5238152352
 C          1.8020607837        0.8992609083        0.5166231300
 N          0.9435804992        1.2241455617       -0.6114737656
 C          2.8352166396       -1.1743108740       -0.5421131908
 N          1.9468020689       -2.0400065134        0.2169653642
 H          4.2449768122        1.9610401678       -0.1587947015
 H          3.5662437571        1.2488404417       -1.6263153199
 H          4.9686080804        0.5129077460       -0.8608992518
 H          3.9347929361        0.7322411797        2.1198724551
 H          4.7898381118       -0.6035604349        1.3436344894
 H          3.2117236323       -0.8850836492        2.0800909121
 H          2.0435464114        1.8382130300        1.0232675406
 H          1.2219127143        0.2829636866        1.2074762229
 H          0.7595893714        0.3802864841       -1.1438402610
 H          1.4093276542        1.8807892270       -1.2293861367
 H          3.7904362428       -1.6944480750       -0.6628633990
 H          2.4616883063       -0.9524293796       -1.5588703070
 H          0.9781229148       -1.7391230519        0.1251822311
 H          1.9953268333       -2.9857395366       -0.1443961312
