  42
        -47.34834456
 C         -2.5364733944        1.0010491606       -1.3012453357
 C         -2.9055145206        0.0708490234       -0.1427902717
 C         -4.4300335970        0.0222415657       -0.0035274651
 C         -2.3988975249       -1.3639753326       -0.4350553890
 N         -0.9752390351       -1.5375956885       -0.6385298534
 C         -2.2722225625        0.6320465679        1.1540736875
 N         -2.5012720138       -0.1084294948        2.3816483823
 H         -1.4574130158        1.1057863789       -1.3981240961
 H         -2.9576274769        1.9906415153       -1.1366015757
 H         -2.9343837675        0.6124356136       -2.2369439392
 H         -4.8849703336       -0.2887597481       -0.9414656554
 H         -4.8202765236        1.0043370803        0.2575008864
 H         -4.7349871399       -0.6868027749        0.7647463742
 H         -2.9023712111       -1.7293500716       -1.3355907106
 H         -2.6946549261       -2.0252841568        0.3878522117
 H         -0.4582592929       -1.1982052706        0.1655949567
 H         -0.6715999294       -0.9892358647       -1.4356095238
 H         -2.6504267475        1.6461339221        1.3141009848
 H         -1.1889253869        0.7039949906        1.0230448683
 H         -2.1711270062       -1.0627171348        2.2830395004
 H         -3.4928319990       -0.1461035825        2.5913184710
 C          4.2505641846       -0.8224958265       -0.9170936909
 C          3.1310039104        0.0363357225       -0.3222435829
 C          3.7334011902        1.3375175252        0.2139202549
 C          2.1035899408        0.3295835703       -1.4430779633
 N          0.9985927848        1.2044110064       -1.0980523032
 C          2.4724843977       -0.7733785103        0.8127124413
 N          1.3860451820       -0.0563083823        1.4759777286
 H          4.7475496054       -0.2908333349       -1.7251122200
 H          3.8489432316       -1.7517511679       -1.3145698037
 H          4.9933280352       -1.0648918077       -0.1597433296
 H          4.2504983050        1.8656670861       -0.5848041811
 H          4.4514692228        1.1256688655        1.0041968200
 H          2.9664769984        1.9966823187        0.6152334779
 H          1.6743371353       -0.6252925636       -1.7639409615
 H          2.6260361566        0.7650240799       -2.2999715486
 H          1.3277114225        2.1587292921       -0.9936866037
 H          0.6421510773        0.9088310182       -0.1913038589
 H          3.2610133747       -1.0800255100        1.5204339657
 H          2.0415461034       -1.6817865708        0.3814915932
 H          1.7564894527        0.7275022746        2.0044835961
 H          0.9265872866       -0.6690308442        2.1421513289
