  42
        -47.34864216
 C         -3.7830824762       -1.2509508357       -1.1887151164
 C         -3.0775747614       -0.2717823129       -0.2467941419
 C         -4.0664835846        0.8254889807        0.1576225369
 C         -2.6156241242       -1.0095114731        1.0378937235
 N         -1.7005234616       -2.1187555131        0.8900153290
 C         -1.8754385968        0.3417883604       -1.0040534878
 N         -1.0873292700        1.3384516977       -0.3042768301
 H         -4.5918133428       -1.7629926625       -0.6704491783
 H         -3.0876509738       -1.9966006512       -1.5690625542
 H         -4.2027959321       -0.7205585354       -2.0410787243
 H         -3.6343323190        1.4909627361        0.9032130805
 H         -4.9638509975        0.3853449973        0.5872261217
 H         -4.3558876269        1.4173207433       -0.7092226747
 H         -3.5108700369       -1.3883214706        1.5450400145
 H         -2.1430780253       -0.2884910871        1.7130038343
 H         -0.7979052081       -1.8156177012        0.5265338269
 H         -2.0825895930       -2.8130104168        0.2585244982
 H         -2.2472930613        0.8089861687       -1.9224428003
 H         -1.1936342087       -0.4630746118       -1.2915457623
 H         -0.6600956960        0.9255131729        0.5176643173
 H         -1.6791300169        2.1045368453       -0.0010155523
 C          3.5623730981        1.0907655063       -1.6136318172
 C          2.9971498508        0.4474293310       -0.3444705782
 C          4.1038638025       -0.3519238781        0.3473534082
 C          2.4788763590        1.5797685031        0.5639849522
 N          1.9713748531        1.0958980452        1.8455954412
 C          1.8249858865       -0.4746297176       -0.7555546400
 N          1.1776137988       -1.2126919979        0.3154778532
 H          4.3916704005        1.7530818865       -1.3731723706
 H          2.7939769310        1.6703266062       -2.1196618727
 H          3.9230437639        0.3268154159       -2.2983906329
 H          4.9153780311        0.3068095661        0.6520875063
 H          4.5076134517       -1.0971242644       -0.3353494159
 H          3.7290877317       -0.8668065977        1.2292792336
 H          1.6454759740        2.0697204871        0.0533480996
 H          3.2849050254        2.3223355548        0.6903351629
 H          1.5115624844        1.8537950348        2.3384694988
 H          2.7388964133        0.7774933866        2.4285993850
 H          2.1786761384       -1.1944947461       -1.5000118342
 H          1.0611271473        0.1525687787       -1.2236930343
 H          1.7819134157       -1.9586719577        0.6450957892
 H          1.0428859304       -0.5732380139        1.0975652135
