%nprocshared=4
%mem=8000mb
%nprocshared=4
%mem=8000mb
%chk=41.chk
%nprocshared=4
%mem=8000mb
#T wB97XD/def2svpp opt=tight freq int(grid=ultrafine) scf=(verytight,qc)

Comment gs min

0 1
 C         -3.9768060310       -1.0140826491       -0.9363520682
 C         -3.1205990787       -0.1492918273       -0.0068406158
 C         -3.9569246540        0.2519061648        1.2105538069
 C         -1.8977385582       -0.9502632823        0.4946598381
 N         -0.9560884602       -1.4069022418       -0.5146690424
 C         -2.6786021969        1.1188803752       -0.7876731352
 N         -1.8353105405        2.0772835170       -0.1113084605
 H         -4.2703857534       -1.9362778794       -0.4375468981
 H         -3.4370465123       -1.2695584637       -1.8468730429
 H         -4.8787076960       -0.4791239402       -1.2253943945
 H         -3.3628544137        0.8250546362        1.9196198877
 H         -4.3295468025       -0.6324008379        1.7235841242
 H         -4.8085597429        0.8562765564        0.9045993919
 H         -2.2509286601       -1.8335260812        1.0360606974
 H         -1.3366395931       -0.3295717324        1.1980681235
 H         -0.6262370574       -0.6087205892       -1.0478642272
 H         -1.4130476351       -2.0433554236       -1.1597161026
 H         -3.5864499236        1.6458458682       -1.1032447980
 H         -2.1551253677        0.8131706618       -1.7000446329
 H         -0.9250624283        1.6887301644        0.1362423159
 H         -2.2787158813        2.4068589334        0.7379090739
 C          4.0941261150        0.4553572155       -1.3407028540
 C          3.1309156512        0.1562592763       -0.1891686247
 C          3.7995282093        0.5070979756        1.1416076052
 C          1.8529406944        1.0033461027       -0.3921281661
 N          0.9554115438        1.0997315899        0.7479108225
 C          2.8024568733       -1.3538325276       -0.2127765769
 N          1.7966544815       -1.7221375187        0.7798103547
 H          4.9725174598       -0.1840250943       -1.2810340839
 H          4.4216741351        1.4918008866       -1.3023530608
 H          3.6103729977        0.2844447794       -2.3003209985
 H          3.9250414955        1.5843622572        1.2370785195
 H          4.7809854065        0.0419840187        1.2010393912
 H          3.2006339382        0.1389722195        1.9708924515
 H          1.2872629276        0.5756574681       -1.2268688347
 H          2.1367160126        2.0203339084       -0.6782800228
 H          1.3686008685        1.6971040422        1.4566903123
 H          0.8652743050        0.1729667306        1.1556259532
 H          3.7290552035       -1.8931274657        0.0068675715
 H          2.4970666560       -1.6273258964       -1.2345141446
 H          0.8654480256       -1.7086877565        0.3614314150
 H          1.9577994450       -2.6669832259        1.1080328813




