  32
        -48.26869519
 C          2.5018824201       -0.3393183404       -1.6184924428
 C          2.5442126517       -0.2878165637       -0.0962900655
 C          2.2585342084       -1.6454278846        0.5242080012
 C          3.8677044753        0.2958925712        0.4051076337
 N          1.5057405380        0.6818353951        0.3538942478
 O          0.8477359586        0.4124237165        1.3315408299
 O          1.4059900798        1.7198642670       -0.2567222889
 H          1.5344283793       -0.7094435899       -1.9478865342
 H          3.2795868020       -1.0029943256       -1.9852703009
 H          2.6569268707        0.6515818146       -2.0373997446
 H          3.0204611950       -2.3551946063        0.2148733181
 H          1.2889653896       -2.0105778995        0.1956641642
 H          2.2546956505       -1.5855253309        1.6096293387
 H          4.6900343409       -0.3395468257        0.0874495626
 H          3.8760217609        0.3543043964        1.4920928787
 H          4.0202558348        1.2931219185       -0.0029351720
 C         -1.9587159053        1.5192926822       -0.8893617213
 C         -2.4787414447        0.3779485432       -0.0315340164
 C         -2.4079401417        0.7072549323        1.4593131194
 C         -3.8915067694       -0.0369390168       -0.4381421184
 N         -1.6107408030       -0.8217178479       -0.2174021016
 O         -0.6266852011       -0.7234998290       -0.9143321738
 O         -1.9392559285       -1.8355218970        0.3491103367
 H         -0.9543641329        1.8112882001       -0.5937360108
 H         -2.6120092460        2.3802515024       -0.7786693988
 H         -1.9334488835        1.2340871584       -1.9388004657
 H         -1.3811244717        0.9136126967        1.7541393959
 H         -2.7749552852       -0.1314657813        2.0464478337
 H         -3.0166937321        1.5815493227        1.6718266104
 H         -3.9400681513       -0.2473113850       -1.5050301311
 H         -4.5881504513        0.7656027397       -0.2122269126
 H         -4.1942321914       -0.9269509251        0.1090064686
