  32
        -34.17680744
 C         -2.0415848307        1.0649795504       -0.7673570590
 C         -3.0340002281        0.4222937970        0.1983537337
 C         -4.4604281653        0.8393821681       -0.1497505002
 C         -2.9083802866       -1.1143253554        0.1787563536
 N         -1.6765777693       -1.6562569555        0.7188347578
 H         -2.0899095395        2.1499889021       -0.6977279475
 H         -2.2748562058        0.7754227245       -1.7903421583
 H         -1.0255905480        0.7486102423       -0.5448496428
 H         -2.8071682365        0.7672754271        1.2155765194
 H         -5.1699562423        0.4219595748        0.5615016357
 H         -4.7239656784        0.4850823377       -1.1442523671
 H         -4.5566321328        1.9231165814       -0.1348476753
 H         -3.0014175439       -1.4695177711       -0.8514687290
 H         -3.7340918477       -1.5427312444        0.7571738118
 H         -1.5494843869       -1.3316792311        1.6727270758
 H         -0.8771662298       -1.3308388562        0.1797009786
 C          3.7496058289        0.6332870483       -1.2067711752
 C          3.3634328251       -0.0415495974        0.1080528544
 C          4.0909972471        0.6193317277        1.2755389299
 C          1.8426977219        0.0162347729        0.3400460582
 N          1.0289977543       -0.7172786693       -0.6154134565
 H          4.8277283972        0.6001542094       -1.3463238883
 H          3.4356031619        1.6755149591       -1.2030545463
 H          3.2878639331        0.1361970860       -2.0580854165
 H          3.6611906417       -1.0969264727        0.0616947693
 H          5.1679716768        0.5651668003        1.1338763245
 H          3.8427161858        0.1262975309        2.2126893039
 H          3.8070776837        1.6667931539        1.3527343469
 H          1.5144346274        1.0599141663        0.3225672995
 H          1.6187392597       -0.3918292944        1.3304872636
 H          1.3197731182       -1.6899588236       -0.6430994713
 H          1.1485030450       -0.3359610824       -1.5482679682
