  32
        -34.17703610
 C         -1.9792999403        1.2691487172        0.3966436323
 C         -3.0763798540        0.2354309510        0.1547902490
 C         -4.2045403802        0.8425368992       -0.6750633414
 C         -2.5114286295       -1.0154213657       -0.5473300945
 N         -1.6130031199       -1.8332796526        0.2449540117
 H         -2.3713538526        2.1181123638        0.9532521084
 H         -1.5923786744        1.6307374116       -0.5543297000
 H         -1.1556252185        0.8370863799        0.9600816689
 H         -3.4850293020       -0.0765529881        1.1247579916
 H         -5.0118834860        0.1264548393       -0.8130449202
 H         -3.8348994884        1.1350948995       -1.6557800413
 H         -4.6087401444        1.7249629024       -0.1832762015
 H         -1.9709274579       -0.7086370881       -1.4474398953
 H         -3.3452610823       -1.6541451926       -0.8576058921
 H         -2.0829831865       -2.1339334610        1.0936278466
 H         -0.7992934123       -1.2923481013        0.5263362301
 C          3.6738285870        0.0670334270       -1.5449319317
 C          3.1885462602       -0.0888518978       -0.1064666832
 C          3.7775737896        1.0125204654        0.7731760148
 C          1.6500071962       -0.0722456858       -0.0701188191
 N          1.0464645595       -0.3822383068        1.2172105827
 H          4.7600996767        0.0304892876       -1.5876210781
 H          3.3459284065        1.0211238095       -1.9522844195
 H          3.2780124888       -0.7283963435       -2.1721226818
 H          3.5281212810       -1.0609349900        0.2738398999
 H          3.4908338771        0.8837252342        1.8155218197
 H          3.4319006734        1.9887924367        0.4380846430
 H          4.8639728454        0.9970741459        0.7225468562
 H          1.2682464702       -0.8059239106       -0.7860552832
 H          1.2904211056        0.9153836376       -0.3724490092
 H          1.3176681816        0.3106576649        1.9077655848
 H          1.3797175059       -1.2846929564        1.5435961733
