  32
        -34.17680876
 C         -2.0812144292        0.9796877433       -0.9329689668
 C         -2.9777955769        0.4488969796        0.1829085713
 C         -4.4253925756        0.8727823675       -0.0508657439
 C         -2.8814013129       -1.0864150802        0.2848892504
 N         -1.6125499856       -1.6103551957        0.7528247961
 H         -1.0533642297        0.6546857966       -0.7912502358
 H         -2.1011579434        2.0676283216       -0.9530020840
 H         -2.4276252389        0.6119648612       -1.8970840329
 H         -2.6389774123        0.8732222947        1.1370654008
 H         -5.0629168958        0.5388713729        0.7650237950
 H         -4.7992328811        0.4401483665       -0.9766332152
 H         -4.4998258178        1.9558928502       -0.1235670210
 H         -3.0773170463       -1.5250221559       -0.6976810000
 H         -3.6550525675       -1.4445417017        0.9724936167
 H         -1.3969480272       -1.2178455638        1.6644171098
 H         -0.8620470004       -1.3372362724        0.1228828796
 C          3.7867380794        0.6652605127       -1.1418080896
 C          3.3256131692       -0.0569488666        0.1227280947
 C          3.9867571354        0.5571738328        1.3535474993
 C          1.7943676767       -0.0028608152        0.2707845948
 N          1.0347499156       -0.7029548503       -0.7522464473
 H          4.8708426594        0.6315309906       -1.2225042297
 H          3.4765250913        1.7082945502       -1.1155974855
 H          3.3714101522        0.2035668205       -2.0359047869
 H          3.6240489148       -1.1109061449        0.0537975732
 H          5.0699661281        0.5053889328        1.2707026568
 H          3.6858133124        0.0295452393        2.2557834012
 H          3.6996125355        1.6017465379        1.4544355350
 H          1.4676884874        1.0414245919        0.2686111212
 H          1.5153089028       -0.4426725500        1.2331860831
 H          1.3229915512       -1.6760263253       -0.7917866041
 H          1.2117017692       -0.2950300076       -1.6645906273
