  32
        -34.17702449
 C         -1.9972499031        1.2546523865        0.5034743081
 C         -3.0625679550        0.2240602527        0.1382112791
 C         -4.1298375636        0.8565098096       -0.7510664509
 C         -2.4346285946       -0.9944598638       -0.5671297124
 N         -1.5858469724       -1.8337366236        0.2567823162
 H         -2.4371596177        2.0736787620        1.0690670536
 H         -1.5492579291        1.6629907349       -0.4005460893
 H         -1.2092118628        0.8046555463        1.1028345532
 H         -3.5410124757       -0.1289459512        1.0609855297
 H         -4.9172970778        0.1413205582       -0.9787444023
 H         -3.6892912149        1.1905793810       -1.6882115819
 H         -4.5788021944        1.7158660515       -0.2573311839
 H         -1.8350394430       -0.6497054370       -1.4144303328
 H         -3.2373609179       -1.6282100401       -0.9591638519
 H         -2.1078407914       -2.1603120065        1.0644070927
 H         -0.7924890985       -1.3006891837        0.6035405488
 C          3.5922928174        0.0308598046       -1.5737951685
 C          3.1530890252       -0.0843680391       -0.1167780427
 C          3.7441505908        1.0587786319        0.7063878931
 C          1.6162674062       -0.0976959927       -0.0354028068
 N          1.0558123888       -0.3814242462        1.2772438247
 H          3.1985868156       -0.7961924447       -2.1600275642
 H          4.6773839355        0.0191846991       -1.6478592344
 H          3.2285603822        0.9611992423       -2.0048862149
 H          3.5243424530       -1.0354571070        0.2862530182
 H          3.4901215017        0.9612308400        1.7605170831
 H          3.3686960002        2.0155298361        0.3479931643
 H          4.8287079910        1.0631754622        0.6243269728
 H          1.2295209332       -0.8594851799       -0.7183845196
 H          1.2278279541        0.8733141823       -0.3550468519
 H          1.3342391347        0.3354283374        1.9399183241
 H          1.4144656184       -1.2683653607        1.6187239481
