  32
        -34.17682149
 C         -4.6968895382        0.3033748234        0.2163575629
 C         -3.1994986831        0.3343179083       -0.0781397392
 C         -2.4312231166        0.8718126062        1.1268716018
 C         -2.7040705743       -1.0728714012       -0.4661747723
 N         -1.3545268805       -1.1435471299       -0.9932415498
 H         -5.0544485374        1.2952477816        0.4850775919
 H         -4.9036938301       -0.3718893285        1.0441704982
 H         -5.2550579548       -0.0390963158       -0.6524382281
 H         -3.0248376130        1.0019227826       -0.9319189258
 H         -1.3599331845        0.8708006308        0.9380697805
 H         -2.6255190692        0.2519650063        2.0002712004
 H         -2.7414573585        1.8901281267        1.3526606099
 H         -3.3737892680       -1.4868760174       -1.2274603363
 H         -2.7502070555       -1.7246824203        0.4109751021
 H         -0.6902996257       -0.8029729473       -0.3030431109
 H         -1.2746292854       -0.5421021989       -1.8078516718
 C          3.8945051910       -0.9999041443        0.4405523571
 C          3.3858379520        0.4030619125        0.1150671798
 C          4.1759765879        0.9949825988       -1.0487633352
 C          1.8853461558        0.3858265821       -0.2280460085
 N          0.9948452797       -0.0088976852        0.8518971009
 H          4.9605803007       -0.9753493830        0.6549063802
 H          3.7280447326       -1.6663749792       -0.4035335101
 H          3.3886520860       -1.4130815399        1.3113787935
 H          3.5287656624        1.0419372534        0.9964268734
 H          5.2363125448        1.0337301013       -0.8096630704
 H          3.8371794756        2.0044106476       -1.2711657678
 H          4.0466685053        0.3850539908       -1.9402325098
 H          1.7122389368       -0.2998987897       -1.0621360579
 H          1.5814355348        1.3886712068       -0.5447178539
 H          1.1960202076       -0.9614754488        1.1387882058
 H          1.1424045615        0.5896327564        1.6594518444
