  32
        -34.17675704
 C         -2.5032485626        1.0133800724        1.0415723267
 C         -3.2723419153       -0.1092254450        0.3490722304
 C         -4.7370802646        0.2813123086        0.1705329679
 C         -2.6419120581       -0.4502294457       -1.0157215834
 N         -1.3298234089       -1.0667507044       -0.9688457887
 H         -2.9135426342        1.2014197254        2.0317247933
 H         -2.5769284354        1.9304414624        0.4597763779
 H         -1.4509730910        0.7580503722        1.1466452559
 H         -3.2240657838       -1.0075194588        0.9781128686
 H         -5.3019011984       -0.5316372379       -0.2807807690
 H         -4.8180512095        1.1539087696       -0.4745218280
 H         -5.1886493563        0.5214195252        1.1308761919
 H         -2.5557018360        0.4642538320       -1.6098395138
 H         -3.3060919875       -1.1365936276       -1.5515347494
 H         -1.3736547366       -1.9236177857       -0.4253588840
 H         -0.6688218505       -0.4504906259       -0.5034513107
 C          4.3785731504       -1.0806939946        0.3544423116
 C          3.4331644690        0.1155447860        0.2891638816
 C          3.7008571820        0.9326759789       -0.9732792066
 C          1.9737141792       -0.3711663076        0.3388942195
 N          0.9632605250        0.6710568375        0.4344693960
 H          4.2128661341       -1.6539374604        1.2638692848
 H          5.4146216066       -0.7498634317        0.3410830767
 H          4.2154962595       -1.7356488131       -0.4986601799
 H          3.6131781357        0.7528927707        1.1649032123
 H          3.4893184189        0.3371136872       -1.8591941353
 H          4.7423376447        1.2444573991       -1.0082933953
 H          3.0835802904        1.8288079511       -1.0041963004
 H          1.8453351376       -1.0229997522        1.2086946277
 H          1.7555078342       -0.9572977048       -0.5579956093
 H          1.0045813469        1.2709586514       -0.3833501048
 H          1.1425189284        1.2532002074        1.2476659046
