%nprocshared=4
%mem=8000mb
%chk=dimer.chk
%nprocshared=4
%mem=8000mb
#T wB97XD/def2svpp opt=tight freq int(grid=ultrafine) scf=(verytight,qc) Volume=tight

Dimer

0 1
 C         -2.1060017744        0.9902513511        0.9738486251
 C         -3.0984702434        0.1051321995        0.2239905246
 C         -4.2341575772        0.9486143237       -0.3493418950
 C         -2.3973764624       -0.6809260387       -0.9017301860
 N         -1.4700381205       -1.7096101312       -0.4709035551
 H         -2.5933639708        1.4841207814        1.8122075543
 H         -1.7115552795        1.7548135182        0.3069617936
 H         -1.2725975496        0.4046041097        1.3550532258
 H         -3.5239843745       -0.6207626871        0.9290926206
 H         -4.9712404152        0.3199154995       -0.8443612759
 H         -3.8455209112        1.6583778890       -1.0768288107
 H         -4.7332978046        1.5056509909        0.4408808095
 H         -1.8440769605        0.0171328853       -1.5364851049
 H         -3.1588541186       -1.1670786577       -1.5209499478
 H         -1.9496093916       -2.3718411983        0.1315729615
 H         -0.7154627589       -1.2980679742        0.0722426225
 C          3.8839900920       -0.9097706468       -0.0719357071
 C          3.1393859727        0.4049845172        0.1519276701
 C          3.5596058959        1.4346072934       -0.8933176082
 C          1.6151206421        0.1995504723        0.0966504625
 N          1.0519408691       -0.6378084904        1.1450148998
 H          4.9588125967       -0.7434640149       -0.0556400578
 H          3.6156101714       -1.3350126970       -1.0370351130
 H          3.6474350482       -1.6367096253        0.7031014464
 H          3.3982077407        0.7903087961        1.1469835985
 H          4.6330090567        1.6053082358       -0.8515964950
 H          3.0543371805        2.3830411143       -0.7249365116
 H          3.3058037069        1.0827022971       -1.8908736072
 H          1.3433942471       -0.2507677731       -0.8618530532
 H          1.1222140465        1.1739865066        0.1653382259
 H          1.2963887999       -0.2623595821        2.0569009290
 H          1.4395599551       -1.5741148363        1.0870413214


