  23
        -23.15919952
 C         -1.8195393002       -1.3274455977        0.0041143130
 C         -0.9920039229       -0.3317383975        0.8099259910
 C          0.0000114891        0.5230305758        0.0000029821
 C         -0.7577149432        1.4241232904       -0.9819443012
 C          0.7578571395        1.4239927513        0.9819848177
 C          0.9919896778       -0.3317669905       -0.8099274217
 C          1.8193966375       -1.3275975291       -0.0041555091
 H         -2.4170614266       -0.8233623645       -0.7507073977
 H         -2.4977453063       -1.8597362425        0.6684084306
 H         -1.1868155435       -2.0614745056       -0.4875667810
 H         -0.4401148669       -0.8759297304        1.5789305430
 H         -1.6744012577        0.3478789556        1.3271569016
 H         -1.5140157079        2.0072097232       -0.4608609632
 H         -1.2466060176        0.8388077024       -1.7563403964
 H         -0.0699891800        2.1137032900       -1.4670838643
 H          1.2463984573        0.8385987372        1.7565546914
 H          0.0702533747        2.1138659295        1.4668926011
 H          1.5144610830        2.0067690601        0.4609863037
 H          1.6744708585        0.3478255804       -1.3270838763
 H          0.4400701567       -0.8758355898       -1.5789859685
 H          2.4174354080       -0.8235487746        0.7502649158
 H          2.4970992720       -1.8603620291       -0.6685694562
 H          1.1865990962       -2.0612138009        0.4879939272
  23
        -23.15877236
 C         -1.8846074529       -1.2239742798        0.9767828450
 C         -1.5508897613       -0.1205555781       -0.0217722980
 C         -0.0787710233        0.3405837769       -0.0571753620
 C          0.0198856973        1.4581340071       -1.1018465770
 C          0.3312420218        0.9015335562        1.3070071032
 C          0.8202311131       -0.8454367373       -0.4514636203
 C          2.2884902098       -0.5063683394       -0.6891379834
 H         -2.9503711302       -1.4402768904        0.9352338730
 H         -1.6430076722       -0.9215783898        1.9920648313
 H         -1.3486763298       -2.1413641002        0.7488592410
 H         -2.1730435964        0.7484125371        0.2078530744
 H         -1.8280814092       -0.4618164235       -1.0226005740
 H         -0.1964214987        1.0740226709       -2.0965712801
 H          1.0119919561        1.9008624761       -1.1093403561
 H         -0.6962488972        2.2461266781       -0.8776388828
 H         -0.4013816351        1.6286317991        1.6511445609
 H          1.2943895202        1.4014727609        1.2428978721
 H          0.4087024970        0.1108179575        2.0487727669
 H          0.4167994801       -1.2974970198       -1.3613371946
 H          0.7711473967       -1.5959157742        0.3394951187
 H          2.4091334387        0.1627867825       -1.5365607015
 H          2.8420741947       -1.4189018642       -0.9021870358
 H          2.7314994468       -0.0424544453        0.1880587240
  23
        -23.15839471
 C         -2.5172852313       -0.1714885964        0.6270719440
 C         -1.1792065884       -0.8563992561        0.3687098889
 C          0.0000234500        0.0688799738        0.0000244271
 C         -0.3696385071        0.9517608035       -1.1934547933
 C          0.3698022198        0.9518062637        1.1934531333
 C          1.1791975821       -0.8565471848       -0.3684776330
 C          2.5171072760       -0.1715107229       -0.6273192262
 H         -2.4418190949        0.5619638772        1.4253929725
 H         -3.2525963978       -0.9159340477        0.9259495301
 H         -2.8866528007        0.3232218596       -0.2669309310
 H         -1.3158288300       -1.5770563653       -0.4418765563
 H         -0.9012940260       -1.4216489258        1.2620357828
 H          0.4876432091        1.5340314231       -1.5206165279
 H         -1.1584518153        1.6494050127       -0.9254335986
 H         -0.7113357542        0.3436103937       -2.0284908896
 H         -0.4880134974        1.5323653377        1.5222042646
 H          1.1569774059        1.6509841117        0.9246414061
 H          0.7138101790        0.3438508736        2.0276659953
 H          0.9012164643       -1.4222065797       -1.2615226934
 H          1.3159994586       -1.5768643745        0.4423896525
 H          2.8861038877        0.3242859786        0.2662321368
 H          2.4414927891        0.5610649614       -1.4264476751
 H          3.2527464267       -0.9160312551       -0.9252851159
  23
        -23.15614291
 C         -1.4333786295       -1.2749069271        1.1152310164
 C         -1.2678771245       -0.4193768691       -0.1383456419
 C         -0.0488441986        0.5292885668       -0.1826286467
 C         -0.4189162420        1.7179211323       -1.0830344718
 C          0.2967468548        1.0785279081        1.2027407368
 C          1.1839175349       -0.1416061821       -0.8211448971
 C          1.6764318429       -1.4320862227       -0.1766986589
 H         -0.5555241987       -1.8800211458        1.3163919706
 H         -2.2819102980       -1.9440652473        0.9822525876
 H         -1.6311040022       -0.6554238441        1.9858715004
 H         -2.1730305231        0.1851269945       -0.2383543025
 H         -1.2238328700       -1.0734544783       -1.0123904528
 H         -1.2291437666        2.2951147426       -0.6426256083
 H         -0.7389602546        1.3713060812       -2.0635915441
 H          0.4348904157        2.3788896444       -1.2171492496
 H          0.6248206398        0.2926129319        1.8757975013
 H         -0.5692089741        1.5688251008        1.6420646160
 H          1.0964572748        1.8121288461        1.1210084809
 H          2.0020692511        0.5834425169       -0.8082557459
 H          0.9535581627       -0.3498041827       -1.8695004075
 H          2.5939461159       -1.7534692097       -0.6666496498
 H          0.9455422052       -2.2286843034       -0.2841134564
 H          1.8934793040       -1.2908588547        0.8788364224
