%nprocshared=4
%mem=8000mb
%chk=monomer.chk
%nprocshared=4
%mem=8000mb
#T wB97XD/def2svpp opt=tight freq int(grid=ultrafine) scf=(verytight,qc) Volume=tight

Monomer

0 1
 C         -1.8195393002       -1.3274455977        0.0041143130
 C         -0.9920039229       -0.3317383975        0.8099259910
 C          0.0000114891        0.5230305758        0.0000029821
 C         -0.7577149432        1.4241232904       -0.9819443012
 C          0.7578571395        1.4239927513        0.9819848177
 C          0.9919896778       -0.3317669905       -0.8099274217
 C          1.8193966375       -1.3275975291       -0.0041555091
 H         -2.4170614266       -0.8233623645       -0.7507073977
 H         -2.4977453063       -1.8597362425        0.6684084306
 H         -1.1868155435       -2.0614745056       -0.4875667810
 H         -0.4401148669       -0.8759297304        1.5789305430
 H         -1.6744012577        0.3478789556        1.3271569016
 H         -1.5140157079        2.0072097232       -0.4608609632
 H         -1.2466060176        0.8388077024       -1.7563403964
 H         -0.0699891800        2.1137032900       -1.4670838643
 H          1.2463984573        0.8385987372        1.7565546914
 H          0.0702533747        2.1138659295        1.4668926011
 H          1.5144610830        2.0067690601        0.4609863037
 H          1.6744708585        0.3478255804       -1.3270838763
 H          0.4400701567       -0.8758355898       -1.5789859685
 H          2.4174354080       -0.8235487746        0.7502649158
 H          2.4970992720       -1.8603620291       -0.6685694562
 H          1.1865990962       -2.0612138009        0.4879939272


