  16
        -19.85277994
 C          0.3633992811        1.5660605660        0.0956647091
 C          0.4032074868        0.0325577522        0.1024083852
 C          0.8818602901       -0.4749081376       -1.2641883169
 C          1.3176102181       -0.4763729052        1.2138559917
 C         -1.0149693762       -0.4656384305        0.3043145394
 O         -1.9403500465       -0.2063002322       -0.4115541060
 H         -0.3326862604        1.9171005531       -0.6619381618
 H          1.3513448851        1.9653346843       -0.1212182529
 H          0.0405518155        1.9442859970        1.0635425839
 H          0.9282309557       -1.5620274503       -1.2737173655
 H          1.8725173858       -0.0831630373       -1.4825711575
 H          0.1956409809       -0.1515282987       -2.0428329164
 H          1.3407812502       -1.5641620325        1.2258617481
 H          0.9741964356       -0.1267923246        2.1853424406
 H          2.3316820995       -0.1151090951        1.0601152053
 H         -1.1522252700       -1.1144091721        1.1933454845
