%nprocshared=4
%mem=8000mb
%chk=22.chk
%nprocshared=4
%mem=8000mb
#T wB97XD/def2svpp opt=tight freq int(grid=ultrafine) scf=(verytight,qc) Volume=tight

Monomer

0 1
 C          0.2897024300        1.5408347275        0.0006812484
 C          0.4084839073        0.0187248345        0.0000055831
 C          1.1443724894       -0.4664162114       -1.2546204126
 C          1.1444345606       -0.4675511800        1.2541661428
 C         -0.9634622506       -0.6176630695       -0.0002188089
 O         -2.0115964634       -0.0386116188       -0.0000275290
 H         -0.2545976679        1.8760092229       -0.8787235935
 H          1.2753897335        1.9995366032        0.0004946096
 H         -0.2539612702        1.8752940177        0.8807497765
 H          1.2123411516       -1.5521980690       -1.2681640892
 H          2.1519012031       -0.0574640621       -1.2725910091
 H          0.6236455394       -0.1408725224       -2.1524245961
 H          0.6232355338       -0.1436118687        2.1522688892
 H          2.1516384587       -0.0578501038        1.2729545240
 H          1.2132344514       -1.5532904850        1.2662695938
 H         -0.9248849038       -1.7271220350       -0.0005610002



