  29
        -29.48230861
 C         -2.8571581590       -0.5355983498       -0.0211864209
 C         -1.3686036843       -0.8763139661       -0.0576009065
 C         -0.3936784413        0.3228147011       -0.0011232470
 C         -0.6562942355        1.2243528008       -1.2158258769
 C         -0.6960699472        1.1456408958        1.2592292129
 C          1.0947310403       -0.1882141555        0.0063738883
 C          1.4300037413       -0.9915735646       -1.2589688900
 C          2.1023554854        0.9705339285        0.0742505543
 C          1.3850482168       -1.0940456060        1.2125303631
 H         -3.1464580574        0.0966030143       -0.8558441381
 H         -3.1326885084       -0.0404110965        0.9055807749
 H         -3.4327793171       -1.4572084786       -0.0885941187
 H         -1.1851836843       -1.4372443038       -0.9745318288
 H         -1.1680540677       -1.5372450602        0.7857399141
 H         -1.6556353216        1.6467019509       -1.1541515220
 H         -0.5853679737        0.6682440547       -2.1463446584
 H          0.0407290085        2.0559007250       -1.2504259287
 H         -0.6842075497        0.5251697733        2.1511451236
 H         -1.6810006362        1.5976433332        1.1782508628
 H          0.0177823886        1.9536021021        1.3850484021
 H          0.8165963748       -1.8835484179       -1.3451649741
 H          2.4692607157       -1.3119346633       -1.2163552447
 H          1.3060682892       -0.3920253582       -2.1558420296
 H          2.0041823278        1.5374231863        0.9952064766
 H          1.9984916344        1.6482385366       -0.7675931757
 H          3.1127351639        0.5671610399        0.0457691649
 H          2.4381210712       -1.3688393622        1.2099086547
 H          0.8084896001       -2.0136994426        1.1752566387
 H          1.1782638427       -0.5875544263        2.1506044772
