%nprocshared=4
%mem=8000mb
#T wB97XD/def2svpp opt=tight freq int(grid=ultrafine) scf=(verytight,qc)

dimer

0 1
 O          3.9834732649       -0.9413999087        1.4695893933
 C          3.4828262715        0.3244359187        1.1243764225
 C          2.6552551432        0.3318545579       -0.1746233675
 C          2.2377474636        1.7829609680       -0.5439519927
 O          1.8415998248        2.5326461079        0.5558591200
 C          3.4308564501       -0.3062288697       -1.3570217439
 O          3.7131854545       -1.6533266446       -1.1555630277
 N          1.4403936635       -0.4796231042        0.0004498452
 O          0.6464045049       -0.4984647792       -0.9198841996
 O          1.2864489465       -1.0977541937        1.0271293680
 H          3.2462723500       -1.4748690755        1.8010577416
 H          4.3502063860        0.9715034101        0.9740990297
 H          2.8776773326        0.7479884675        1.9337724154
 H          1.4591361208        1.7340361192       -1.3167185548
 H          3.1126962215        2.2862999657       -0.9635974151
 H          0.9353959016        2.2851471770        0.8142590121
 H          4.3467293772        0.2816349875       -1.5080228866
 H          2.8189974302       -0.2469876461       -2.2622211345
 H          4.2317630734       -1.7379514028       -0.3369401227
 O         -3.2630483402       -1.7318731629        1.2944891566
 C         -2.3079765495       -0.7070969522        1.2403121240
 C         -2.5026790664        0.1658648181       -0.0178871929
 C         -2.5508458067       -0.7029541017       -1.3057903789
 O         -1.8232534011       -1.8872559337       -1.1890993314
 C         -3.8287174275        0.9728146123        0.0920570468
 O         -4.9385731178        0.1402957498        0.0730577130
 N         -1.4219194617        1.1470305407       -0.1200490789
 O         -1.3395186189        1.8017265047       -1.1301583935
 O         -0.6730672989        1.2793770986        0.8333152855
 H         -3.0506408623       -2.3638453490        0.5920062424
 H         -1.2899641266       -1.1129351633        1.2605902128
 H         -2.4452884349       -0.0992363686        2.1388896037
 H         -2.2120204538       -0.0884370946       -2.1483489605
 H         -3.5924630066       -0.9907396168       -1.4770666662
 H         -0.8755648360       -1.6790040365       -1.2284578670
 H         -3.9174573413        1.6432364787       -0.7685799248
 H         -3.7935570638        1.5748935703        1.0136541429
 H         -4.8147772591       -0.5532687468        0.7441127741

