  22
        -21.00383627
 C         -1.9302307131       -1.1645393655        0.7055807446
 C         -1.9546809317        0.3417722902        0.4784296483
 C         -2.4057612217        0.6886632263       -0.9349934060
 H         -1.2517046459       -1.6433717549        0.0026048588
 H         -2.9227214476       -1.5870993608        0.5634056094
 H         -1.6004681663       -1.3965772192        1.7160076524
 H         -0.9565929705        0.7495679023        0.6515141288
 H         -2.6310081835        0.8068159805        1.1992958328
 H         -2.4079800893        1.7659904167       -1.0859428630
 H         -3.4113876107        0.3149166145       -1.1158076140
 H         -1.7390686448        0.2394001428       -1.6682458697
 C          1.6992114075       -0.2596287644       -1.2585277611
 C          2.0818714681       -0.4605679871        0.2025243597
 C          2.5182323673        0.8461933227        0.8531952031
 H          1.3794655824       -1.1984677247       -1.7055631508
 H          2.5470672839        0.1187298181       -1.8258987936
 H          0.8854430470        0.4572738986       -1.3432064241
 H          2.8950918851       -1.1870178889        0.2678410703
 H          1.2288882848       -0.8691301587        0.7483499520
 H          2.7796129946        0.6880601073        1.8971159400
 H          1.7169428598        1.5810093953        0.8077220634
 H          3.3854298588        1.2565131007        0.3401440899
