  22
        -21.00378810
 C         -2.1186933554       -0.9523090124       -0.9000453911
 C         -1.9839961510        0.4225017492       -0.2572777637
 C         -2.2082891219        0.3613493311        1.2484993756
 H         -1.9452084946       -0.8952541255       -1.9724029633
 H         -3.1163161962       -1.3538723720       -0.7346491890
 H         -1.3978615183       -1.6450378656       -0.4704175250
 H         -2.7098921338        1.1050457805       -0.7052557182
 H         -0.9875562489        0.8206510257       -0.4598590268
 H         -2.1011631136        1.3476109913        1.6947436342
 H         -1.4867142661       -0.3074312799        1.7131416695
 H         -3.2073512871       -0.0083688000        1.4696139971
 C          1.8612760109       -0.3287070691        1.1652529573
 C          2.0250618973       -0.4212207197       -0.3467243192
 C          2.4273611147        0.9185465063       -0.9506586685
 H          1.5662535852       -1.2901021744        1.5801635758
 H          1.1002425496        0.4052194069        1.4213586267
 H          2.7967648311       -0.0269535416        1.6316608613
 H          1.0857809101       -0.7521940338       -0.7944944111
 H          2.7856971753       -1.1685137071       -0.5841002880
 H          2.5302691823        0.8388775300       -2.0305674433
 H          3.3775220273        1.2523664164       -0.5386444087
 H          1.6771144435        1.6760406921       -0.7322507050
