  22
        -21.00376386
 C         -1.7743189630       -1.1228022239        0.3248234736
 C         -2.6950297480        0.0641633693        0.0704731947
 C         -1.9488012817        1.2309465916       -0.5646092810
 H         -2.3227525861       -1.9453314112        0.7785327328
 H         -0.9655650457       -0.8386643167        0.9943575687
 H         -1.3382765720       -1.4748787215       -0.6077470438
 H         -3.1361212206        0.3886013638        1.0157578909
 H         -3.5114341632       -0.2446473584       -0.5863685958
 H         -1.1392930534        1.5622359060        0.0817644572
 H         -2.6195286777        2.0704756653       -0.7330470505
 H         -1.5235488419        0.9355556943       -1.5216210697
 C          2.3672682646       -1.3243121275        0.0739695450
 C          2.0063259168        0.0385780973       -0.5035149636
 C          1.9980858579        1.1203599912        0.5692839067
 H          2.3745726241       -2.0828097610       -0.7055070543
 H          1.6456406305       -1.6204931177        0.8324388222
 H          3.3530638426       -1.2946567494        0.5335485563
 H          1.0206125309       -0.0154653597       -0.9693324138
 H          2.7264710382        0.3055266207       -1.2802140588
 H          2.9797346717        1.2082277888        1.0301737865
 H          1.2777054008        0.8791798691        1.3484480373
 H          1.7324952039        2.0845160009        0.1412460436
