  22
        -21.00375306
 C         -2.3737449729        0.1777066961       -1.2653392802
 C         -1.9461504347       -0.5683778361       -0.0074639724
 C         -1.9933253405        0.3295209874        1.2228473358
 H         -2.3260961136       -0.4744972863       -2.1343882693
 H         -1.7240319647        1.0324555053       -1.4429184103
 H         -3.3940094022        0.5417500252       -1.1640058524
 H         -0.9317017168       -0.9503377944       -0.1396873277
 H         -2.6044688147       -1.4264579495        0.1457142078
 H         -1.6848236325       -0.2175737893        2.1111905525
 H         -3.0027670739        0.7022075042        1.3836474821
 H         -1.3318264346        1.1847917809        1.0977402445
 C          2.1582867720       -0.2190546366        1.2855352034
 C          2.3172633644       -0.4896647035       -0.2055094264
 C          1.8630137674        0.6982654443       -1.0444344579
 H          2.4898012881       -1.0747157943        1.8695721668
 H          1.1166286768       -0.0208968363        1.5273994676
 H          2.7482311359        0.6465385138        1.5795800324
 H          1.7323911120       -1.3712830236       -0.4784116766
 H          3.3646651753       -0.7088395527       -0.4249113777
 H          2.4543512235        1.5801044478       -0.8068209391
 H          0.8178538795        0.9244081861       -0.8471060584
 H          1.9737919036        0.4856412565       -2.1054133900
