  22
        -21.00387060
 C         -2.2617098363       -1.1749234216       -0.5941926710
 C         -2.0723263184        0.3341797626       -0.5020449867
 C         -1.8785213065        0.7873913455        0.9395220324
 H         -3.1430951732       -1.4829334267       -0.0355312422
 H         -1.3988650061       -1.6932171393       -0.1804824804
 H         -2.3855892917       -1.4853450551       -1.6293337003
 H         -2.9454157429        0.8356190639       -0.9258118605
 H         -1.2027885544        0.6281363818       -1.0938442349
 H         -1.7371429920        1.8648784336        0.9891608559
 H         -1.0061817033        0.3043367777        1.3745345801
 H         -2.7470268478        0.5272508889        1.5410673790
 C          2.2672774092       -0.7927318447        1.0185105575
 C          1.9804200896       -0.3366608754       -0.4066676083
 C          1.9585218635        1.1828174399       -0.5169762170
 H          2.2719817308       -1.8786703055        1.0822471017
 H          1.5098777629       -0.4118576257        1.7007820014
 H          3.2367894801       -0.4252427921        1.3483500677
 H          1.0169512488       -0.7372756003       -0.7286165346
 H          2.7451294966       -0.7380835698       -1.0755822020
 H          2.9192436905        1.5998222331       -0.2218934869
 H          1.1911289250        1.6003564620        0.1312532040
 H          1.7505331930        1.4913624183       -1.5392550428
