  34
        -40.83347409
 C         -3.5441864334       -2.1753372633        0.1094941873
 C         -2.9469682658       -0.9352598238       -0.5653177138
 C         -1.8537953369       -1.3667626399       -1.5426029444
 C         -4.0441627577       -0.1701265132       -1.3062082476
 C         -2.3558824899       -0.0768348422        0.5502966978
 Br        -1.4698783410        1.5258283510       -0.0983210531
 H         -4.3103299738       -1.8951770201        0.8298687462
 H         -2.7700213178       -2.7364984451        0.6281640966
 H         -3.9976235971       -2.8225535709       -0.6370639750
 H         -2.2596408345       -2.0556321850       -2.2795376779
 H         -1.0453188047       -1.8632754584       -1.0100482327
 H         -1.4464528040       -0.5073915378       -2.0709798789
 H         -4.8374724616        0.1273017946       -0.6221486057
 H         -4.4793342232       -0.7946777014       -2.0828238037
 H         -3.6414771304        0.7245486843       -1.7771289643
 H         -1.5940509789       -0.6251541970        1.1037914959
 H         -3.1306449244        0.2734911803        1.2320413502
 C          4.5681949569        0.8766004832       -0.7740108899
 C          3.1076370050        0.6259558054       -0.3789449907
 C          2.6131799739        1.7636203838        0.5139328799
 C          2.2424951927        0.5381788649       -1.6357926546
 C          3.0860213397       -0.6986630780        0.3812952879
 Br         1.3140461529       -1.2349624920        0.9472202172
 H          4.6476760982        1.8158427318       -1.3151881632
 H          4.9401209881        0.0799532276       -1.4160399996
 H          5.2053236923        0.9351612872        0.1067213740
 H          2.6954295655        2.7119509356       -0.0103760955
 H          3.2021747835        1.8241399288        1.4279505907
 H          1.5676035094        1.6246290005        0.7787525242
 H          2.5498099472       -0.2977636224       -2.2626412805
 H          2.3325568806        1.4535264178       -2.2147099092
 H          1.1943697024        0.4145691606       -1.3749377329
 H          3.6795424090       -0.6403725681        1.2941680423
 H          3.4539248469       -1.5168305618       -0.2387493810
