  34
        -40.83346300
 C         -3.8808922880       -1.3060566377        1.0391142326
 C         -3.1736278784       -0.4796402834       -0.0409739936
 C         -4.1279699999       -0.2311949243       -1.2096520433
 C         -2.7133482898        0.8496174097        0.5565723244
 C         -1.9708659560       -1.3015096503       -0.4969307751
 Br        -0.8863988052       -0.4024912372       -1.8339033120
 H         -3.2156214157       -1.4799536688        1.8819190867
 H         -4.2003268232       -2.2689411156        0.6451458419
 H         -4.7593359920       -0.7753072932        1.3973921901
 H         -4.9969203730        0.3291705593       -0.8727897509
 H         -4.4721479480       -1.1728076309       -1.6347363081
 H         -3.6384341090        0.3426479494       -1.9941011914
 H         -1.9904824534        0.6772197406        1.3515459128
 H         -3.5621817160        1.3903591066        0.9680302004
 H         -2.2491635471        1.4748915135       -0.2029580746
 H         -2.2831912593       -2.2390391646       -0.9566935043
 H         -1.2972031062       -1.5011233717        0.3359315572
 C          4.4038313104        1.8452954225        0.2250333974
 C          3.0333169469        1.1604165991        0.1552314226
 C          1.9813844850        2.1613498409       -0.3217367754
 C          3.0991230397       -0.0239024319       -0.8085791022
 C          2.7153212762        0.6822843759        1.5705090034
 Br         1.0043745915       -0.2104385078        1.7169388571
 H          4.3805763396        2.6948094372        0.9053594048
 H          4.6863636969        2.2055563147       -0.7607234892
 H          5.1693068250        1.1508735786        0.5669890964
 H          2.2571843727        2.5558351709       -1.2960853883
 H          1.8931822245        2.9942166428        0.3744478476
 H          1.0097384729        1.6838763334       -0.4230731717
 H          2.1266513462       -0.5007873611       -0.9050506554
 H          3.8215208019       -0.7638049512       -0.4666794283
 H          3.3974098883        0.3158190309       -1.7968282195
 H          2.6689778947        1.5182173005        2.2691511927
 H          3.4532853139       -0.0408972405        1.9190167405
