  34
        -40.83424766
 C         -3.7803120546       -1.8476686470        0.9896119082
 C         -3.2099734185       -0.7396409571        0.0967550941
 C         -2.5470315586       -1.3665969512       -1.1296644764
 C         -4.3328272783        0.2046891508       -0.3347619895
 C         -2.1774530529        0.0056348839        0.9383176008
 Br        -1.2865603913        1.4358790767       -0.0260765689
 H         -4.2422010300       -1.4294480200        1.8820454116
 H         -2.9943834261       -2.5346826266        1.2958078439
 H         -4.5353602111       -2.4101392232        0.4462152174
 H         -3.2667291899       -1.9696555807       -1.6780047408
 H         -1.7168938699       -2.0040189389       -0.8312308276
 H         -2.1692114238       -0.5985982513       -1.8016000222
 H         -4.8189501188        0.6498642382        0.5322426730
 H         -5.0827872475       -0.3391111041       -0.9043413645
 H         -3.9478188740        1.0057253068       -0.9632677501
 H         -1.3825412474       -0.6641996587        1.2647875962
 H         -2.6397618233        0.4817992443        1.8030725701
 C          2.5605782499        1.3623485158        1.1305623821
 C          3.2112619573        0.7380350255       -0.1037525998
 C          3.7744379321        1.8478599025       -0.9989106029
 C          4.3369670937       -0.2089033320        0.3144355030
 C          2.1699369422       -0.0037931627       -0.9374194240
 Br         1.2855181418       -1.4344087812        0.0324111507
 H          2.1875100855        0.5930143410        1.8036324298
 H          1.7288587603        2.0020818204        0.8415390105
 H          3.2862958985        1.9624866670        1.6741496159
 H          4.5346281161        2.4084948483       -0.4608221597
 H          2.9862785955        2.5361250016       -1.2964348753
 H          4.2281245683        1.4315387269       -1.8964150213
 H          3.9571719244       -1.0103561672        0.9455832541
 H          5.0939013261        0.3325971265        0.8769420743
 H          4.8130978333       -0.6534649528       -0.5584203544
 H          2.6235759092       -0.4788992395       -1.8073209542
 H          1.3732691845        0.6680435451       -1.2553270792
