  34
        -40.83296023
 C         -3.8433471207       -2.1265845181       -0.2620090861
 C         -3.2633351868       -0.7080000751       -0.2999051291
 C         -2.4768479971       -0.5152156586       -1.5963433518
 C         -4.3965172172        0.3151737975       -0.2135233945
 C         -2.3381812632       -0.5859577561        0.9082959675
 Br        -1.4544373247        1.1409532516        1.0327304620
 H         -4.3966609408       -2.2960830060        0.6597814616
 H         -3.0491414850       -2.8668388379       -0.3301708559
 H         -4.5215326118       -2.2726912972       -1.0989780120
 H         -2.0813401477        0.4963870875       -1.6618619190
 H         -3.1225788879       -0.6814769105       -2.4553200075
 H         -1.6460289294       -1.2163446576       -1.6467022698
 H         -4.9674723316        0.1836753504        0.7044527124
 H         -5.0738042631        0.1977033848       -1.0562127865
 H         -4.0055252871        1.3307482430       -0.2336840187
 H         -1.5350325315       -1.3208726120        0.8616322076
 H         -2.8895681779       -0.6985836466        1.8417860234
 C          3.8984508943        2.1800083210       -0.4751781528
 C          3.4959897294        0.7007606222       -0.4514641796
 C          4.0066247146        0.0096276001       -1.7165409099
 C          4.0872371396        0.0298979394        0.7888242509
 C          1.9712948219        0.6655633271       -0.4012472767
 Br         1.2454170459       -1.1343346491       -0.3544353359
 H          3.5401780411        2.6918597331        0.4154666408
 H          3.4840634058        2.6803547494       -1.3479998138
 H          4.9813004225        2.2700840530       -0.5109947951
 H          5.0902091339        0.0812135498       -1.7732678534
 H          3.5862640733        0.4754065792       -2.6064644125
 H          3.7377645694       -1.0450352747       -1.7201124855
 H          3.7159318667        0.5041548441        1.6957757400
 H          5.1717153049        0.1109607014        0.7793039379
 H          3.8284709981       -1.0267537025        0.8213176177
 H          1.5339134361        1.1327885573       -1.2829992552
 H          1.5879973915        1.1584650336        0.4914485811
