  34
        -40.83420915
 C         -3.6891484168       -2.1139833517       -0.5948318933
 C         -3.2067572860       -0.7438551023       -0.1045382910
 C         -4.3485528271        0.2691640107       -0.1983502328
 C         -2.7232596745       -0.8625160721        1.3407181884
 C         -2.0548473339       -0.3386878573       -1.0200119939
 Br        -1.2527502747        1.3638984094       -0.5418818353
 H         -2.8905662406       -2.8490473110       -0.5216739792
 H         -4.0193775932       -2.0626538976       -1.6307076580
 H         -4.5241277465       -2.4528184765        0.0131381555
 H         -5.1807647900       -0.0439376510        0.4277153312
 H         -4.7061243147        0.3558210534       -1.2234919756
 H         -4.0251980871        1.2525389099        0.1382674686
 H         -1.8774843313       -1.5444310678        1.4063640319
 H         -3.5225970365       -1.2400893048        1.9737825524
 H         -2.4155784565        0.1066444365        1.7279944471
 H         -2.3892028605       -0.2234263586       -2.0511140617
 H         -1.2448628754       -1.0656757816       -0.9717767582
 C          3.8145310638        2.0424681527        0.1893339808
 C          3.2193349604        0.6617901991       -0.1099578039
 C          2.5758208603        0.6765178042       -1.4965157097
 C          4.3196425747       -0.3986644608       -0.0500649711
 C          2.1664348710        0.4013910100        0.9641995240
 Br         1.2398642311       -1.2897329780        0.7380034643
 H          4.2618180603        2.0669011292        1.1812893485
 H          3.0454742922        2.8101329166        0.1373022725
 H          4.5861461592        2.2795003554       -0.5388686775
 H          3.3119239037        0.9493530905       -2.2488987880
 H          1.7616120145        1.3978282963       -1.5315348431
 H          2.1812323096       -0.3050969531       -1.7514118904
 H          3.9162272709       -1.3898408247       -0.2494981507
 H          4.7931384581       -0.4099322511        0.9306590368
 H          5.0837433298       -0.1898726648       -0.7951695982
 H          1.3885694374        1.1641161374        0.9434439485
 H          2.6152755504        0.3570415942        1.9565511306
