  34
        -40.83347915
 C         -3.0062582469       -0.3787630670       -1.0667714454
 C         -3.0167106426       -1.1145218972        0.2728023002
 C         -4.3722870042       -1.8034421281        0.4728550230
 C         -1.9002697924       -2.1578530993        0.3019345669
 C         -2.8582831554       -0.1269277030        1.4270664090
 Br        -1.1851600908        0.8454454927        1.3872701563
 H         -2.0402879656        0.0870275035       -1.2470865123
 H         -3.7779277575        0.3893046103       -1.0944629032
 H         -3.1895458191       -1.0784998466       -1.8778168260
 H         -4.4015497870       -2.3374063019        1.4210702133
 H         -4.5435147193       -2.5192125761       -0.3269233401
 H         -5.1835845549       -1.0777081807        0.4609358362
 H         -1.8658928128       -2.6643291381        1.2654761423
 H         -0.9342331832       -1.6961345925        0.1131478649
 H         -2.0660003678       -2.9024538536       -0.4721033151
 H         -2.8754809023       -0.6382147620        2.3900383249
 H         -3.6391138553        0.6338993601        1.4066188347
 C          3.8120751538        1.5029416519        0.9775353579
 C          3.1603859952        0.3908276601        0.1479563360
 C          4.2069786857       -0.2594085057       -0.7576264929
 C          2.5524995834       -0.6524057459        1.0850613374
 C          2.0686249588        1.0556323358       -0.6866136956
 Br         1.0645931906       -0.1971516518       -1.7793582831
 H          3.0803926936        1.9647907617        1.6367375655
 H          4.2329141841        2.2727355126        0.3334861727
 H          4.6132744810        1.0915110185        1.5863028415
 H          4.9960265710       -0.7078164672       -0.1585289500
 H          4.6576080149        0.4786101178       -1.4194375936
 H          3.7590766767       -1.0414919918       -1.3675640334
 H          1.7659371344       -0.2052388809        1.6896298713
 H          3.3163138824       -1.0525948196        1.7474799071
 H          2.1273939784       -1.4789613538        0.5197348552
 H          2.4893749146        1.7797121545       -1.3841497898
 H          1.3297933630        1.5396163224       -0.0483643805
