  34
        -40.83347274
 C         -4.4360825617       -1.5363308691        0.8318964662
 C         -3.0480568935       -0.9818832927        0.4880994500
 C         -1.9716053290       -1.8461708023        1.1440221475
 C         -2.8581400907       -0.9761380579       -1.0284156435
 C         -3.0016408812        0.4419614480        1.0387971794
 Br        -1.3100156600        1.3321121543        0.7342205380
 H         -5.2200058436       -0.9316898810        0.3791221589
 H         -4.5929958955       -1.5535792108        1.9090475386
 H         -4.5301608986       -2.5522929402        0.4572633773
 H         -2.0655369704       -2.8759226993        0.8096224301
 H         -2.0646424981       -1.8266564454        2.2289813976
 H         -0.9776626713       -1.5004046930        0.8705235948
 H         -3.5999059643       -0.3410304780       -1.5106964352
 H         -2.9621607597       -1.9841389866       -1.4210419806
 H         -1.8654040094       -0.6212042484       -1.2946636249
 H         -3.1464716424        0.4529980069        2.1195409386
 H         -3.7539364412        1.0738379218        0.5657335605
 C          2.4719716029        0.1128616297        1.4645438285
 C          3.1384663624        0.5973900623        0.1772722147
 C          3.6875972977        2.0127503979        0.3893717407
 C          4.2765476261       -0.3453876990       -0.2154256481
 C          2.1115459554        0.6948273715       -0.9479465863
 Br         1.2392365004       -0.9951868477       -1.3414040278
 H          1.6273947538        0.7509608284        1.7167882456
 H          3.1830845982        0.1341522246        2.2867278931
 H          2.1131027773       -0.9079748683        1.3535103275
 H          4.4367693333        2.0065528460        1.1771138080
 H          2.8886031750        2.6917261759        0.6788680811
 H          4.1509519079        2.3904043571       -0.5200296631
 H          3.9034681151       -1.3540426077       -0.3824927759
 H          5.0209214496       -0.3868170110        0.5764083793
 H          4.7651258192       -0.0029719598       -1.1264454507
 H          2.5767420864        1.0077758956       -1.8825727933
 H          1.3075050504        1.3812606761       -0.6838941662
