  34
        -40.83346502
 C         -3.6611313295       -2.0660118731        0.3676416736
 C         -3.0364122675       -0.9208120958       -0.4372939468
 C         -2.0184342985       -1.4903240518       -1.4248174410
 C         -4.1298471803       -0.1586195854       -1.1867355162
 C         -2.3441270047       -0.0089877486        0.5723826193
 Br        -1.4247100236        1.4910638667       -0.2495161299
 H         -4.3778399780       -1.6857722106        1.0930048242
 H         -2.8916891235       -2.6215361668        0.8991807778
 H         -4.1804021761       -2.7492718939       -0.2996370626
 H         -2.4969085590       -2.2111457494       -2.0833658687
 H         -1.2105616750       -1.9872193832       -0.8913578390
 H         -1.5922728478       -0.7005012607       -2.0395791565
 H         -4.8659804098        0.2438565287       -0.4925046668
 H         -4.6415842623       -0.8210578135       -1.8809200627
 H         -3.7059154713        0.6663019218       -1.7561279006
 H         -1.5774683488       -0.5510346770        1.1253238992
 H         -3.0613672392        0.4318933010        1.2645546318
 C          4.6503123661        0.9696668023       -0.4844724768
 C          3.1655754556        0.6806878936       -0.2309949854
 C          2.5817079242        1.7561160210        0.6846835430
 C          2.4104128271        0.6629553863       -1.5596984817
 C          3.0998692942       -0.6891061058        0.4413855488
 Br         1.2970202733       -1.2643036906        0.8460580187
 H          5.0884257012        0.2150719794       -1.1354056778
 H          5.2089275289        0.9851271411        0.4497534888
 H          4.7606904956        1.9389535444       -0.9636351264
 H          2.7028225940        2.7369063016        0.2324794101
 H          3.0840689602        1.7586509744        1.6510409765
 H          1.5177161767        1.5964716152        0.8422801605
 H          1.3467935694        0.5043166100       -1.3988438461
 H          2.7887173476       -0.1231682858       -2.2116277194
 H          2.5276936407        1.6165375323       -2.0675971698
 H          3.6271306879       -0.6870060525        1.3957889801
 H          3.5165350688       -1.4653054246       -0.2011177972
