  34
        -40.83347346
 C         -3.5538197700       -2.1699170038        0.0977674395
 C         -2.9455561798       -0.9326860987       -0.5721602211
 C         -1.8516021503       -1.3691771151       -1.5461517206
 C         -4.0350462206       -0.1586980296       -1.3152177909
 C         -2.3526044347       -0.0807773623        0.5475441449
 Br        -1.4661421549        1.5245462256       -0.0933541514
 H         -4.3255790008       -1.8859702896        0.8104952671
 H         -2.7869497640       -2.7337923760        0.6241890047
 H         -4.0027955670       -2.8159125710       -0.6525280358
 H         -1.0513967694       -1.8779230426       -1.0125944429
 H         -1.4321394367       -0.5106894839       -2.0662990930
 H         -2.2604945682       -2.0485038775       -2.2902881504
 H         -4.8268174675        0.1459280664       -0.6325022716
 H         -4.4743673593       -0.7800033877       -2.0920942503
 H         -3.6241455960        0.7322481869       -1.7860871938
 H         -1.5907274137       -0.6328919555        1.0973382782
 H         -3.1263078508        0.2665565915        1.2320951088
 C          4.5540269019        0.8866746428       -0.7872343799
 C          3.0968863235        0.6291593423       -0.3841360056
 C          2.6002684235        1.7678075890        0.5061634603
 C          2.2265526707        0.5307481537       -1.6366136617
 C          3.0862424629       -0.6922198554        0.3819282873
 Br         1.3189307675       -1.2390470896        0.9532019854
 H          4.9281046611        0.0888851768       -1.4266823246
 H          5.1948134919        0.9541166161        0.0902534632
 H          4.6250228736        1.8235021820       -1.3338476253
 H          2.6666978988        2.7132452594       -0.0255649953
 H          3.1984989316        1.8408239466        1.4132677365
 H          1.5591612181        1.6199484770        0.7833500175
 H          2.5329749675       -0.3088788060       -2.2589885338
 H          2.3117682335        1.4422461758       -2.2223252291
 H          1.1799942744        0.4064453119       -1.3700921930
 H          3.6810002092       -0.6258979519        1.2933988598
 H          3.4587108646       -1.5102916306       -0.2353791374
