  34
        -40.83468437
 C         -3.6936448401       -2.0098947216       -0.3959203605
 C         -2.9813093196       -0.6757413128       -0.6466117491
 C         -1.9015434955       -0.8682064302       -1.7112441477
 C         -3.9950750285        0.3727296530       -1.1065910496
 C         -2.3521697306       -0.2658719310        0.6822752010
 Br        -1.3447032569        1.3907310748        0.5800689348
 H         -4.4548436581       -1.9058959561        0.3750613121
 H         -2.9822377369       -2.7698394588       -0.0800022675
 H         -4.1765482367       -2.3499041368       -1.3085472346
 H         -2.3437519856       -1.2459898717       -2.6299169936
 H         -1.1520836670       -1.5793750217       -1.3690912417
 H         -1.4078030440        0.0746861651       -1.9368377574
 H         -4.4651858895        0.0583267987       -2.0354474734
 H         -3.5107458921        1.3317068106       -1.2816664221
 H         -4.7750443837        0.5113155373       -0.3591493332
 H         -1.6424281470       -1.0177229521        1.0258595530
 H         -3.1122034898       -0.0971989771        1.4452910156
 C          3.7002413708        2.0054219520       -0.3959880468
 C          2.9828455333        0.6740035325       -0.6466811407
 C          1.9022744187        0.8709007181       -1.7096536850
 C          3.9924135279       -0.3775941959       -1.1087046324
 C          2.3540559304        0.2653732658        0.6827662139
 Br         1.3432429608       -1.3891176148        0.5811418149
 H          4.4621818367        1.8981567464        0.3738130136
 H          2.9919679009        2.7676160521       -0.0785072602
 H          4.1830123237        2.3444146949       -1.3090674236
 H          2.3448709714        1.2455937304       -2.6294268940
 H          1.1568143109        1.5861008233       -1.3670755324
 H          1.4033842906       -0.0696646899       -1.9335833738
 H          3.5043462393       -1.3345308316       -1.2844912420
 H          4.7724961988       -0.5199707697       -0.3621220241
 H          4.4628183070       -0.0638829563       -2.0376192557
 H          1.6459255152        1.0185349337        1.0269387694
 H          3.1144392532        0.0954272982        1.4452169022
