%nprocshared=4
%mem=8000mb
%chk=34.chk
%mem=8000mb
#T wB97XD/def2svpp opt=tight freq int(grid=ultrafine) scf=(verytight,qc)

comment

1 2
C       -2.851977   -0.578423   -0.001088
C       -1.369658   -0.846062   -0.267220
C       -0.392400    0.332725   -0.008325
C       -0.587264    1.381823   -1.119048
C       -0.741555    1.002410    1.333624
C        1.105260   -0.194398    0.005131
C        1.377382   -1.159081   -1.164929
C        2.108941    0.968083   -0.117164
C        1.423450   -0.943298    1.313116
H       -3.056322   -0.404071    1.068519
H       -3.453047   -1.450558   -0.310995
H       -3.229749    0.293977   -0.561960
H       -1.260183   -1.168245   -1.317459
H       -1.069950   -1.712490    0.348972
H       -1.654376    1.640975   -1.225774
H       -0.238198    1.017609   -2.100788
H       -0.052056    2.319357   -0.894296
H       -1.697126    1.548748    1.257878
H        0.025059    1.736537    1.634876
H       -0.845737    0.267613    2.150120
H        1.084094   -0.728106   -2.137897
H        0.849484   -2.119581   -1.045083
H        2.457285   -1.385023   -1.219054
H        1.925015    1.761862    0.627300
H        2.087629    1.429180   -1.118710
H        3.135333    0.595275    0.048963
H        0.691182   -1.739984    1.530399
H        1.452543   -0.263509    2.181101
H        2.416047   -1.422238    1.239317


