%chk=monomer.chk
%nprocshared=4
%mem=8000mb
#T wB97XD/def2svpp opt=tight freq int(grid=ultrafine) scf=(verytight,qc) Volume=tight

Monomer

0 1
 C         -1.5785490191       -0.9838138430       -0.4889519297
 C         -0.6983211554        0.2583966364       -0.3990708295
 C         -1.2234635339        1.2245584808        0.6668239196
 C          0.7226973666       -0.1368704200       -0.0085975302
 N          1.6813821880        0.6851597625       -0.5019321696
 O          0.9915161304       -1.0772086635        0.7018850177
 H         -2.6154247651       -0.7057948872       -0.6624978326
 H         -1.5099322218       -1.5450680588        0.4392612164
 H         -1.2468703159       -1.6273114659       -1.3004585504
 H         -0.6772149092        0.7675608412       -1.3685846206
 H         -2.2401104899        1.5300358824        0.4293471963
 H         -0.5994517692        2.1139983353        0.7295411586
 H         -1.2255948027        0.7352909070        1.6378830390
 H          1.4683547335        1.4776050076       -1.0798040678
 H          2.6415923250        0.5145523896       -0.2526482835



