#T wB97XD/def2svpp opt=tight freq int(grid=ultrafine) scf=(verytight,qc)

Comment gs min

0 1
O          0.89993        0.05059       -0.01266
C          2.32622        0.04263       -0.07931
C          2.84068       -1.27898       -0.67853
C          2.34636       -2.46378        0.16302
O          2.81047       -3.70085       -0.37249
C          2.34830       -1.43196       -2.11939
F          2.81387       -0.39193       -2.87044
C          4.37020       -1.23767       -0.69019
F          4.82443       -1.05440        0.58361
H          0.64887        0.89082        0.41836
H          2.71247        0.17922        0.93945
H          2.64597        0.90007       -0.67750
H          1.25255       -2.50512        0.21426
H          2.71802       -2.39054        1.19077
H          2.11933       -4.05334       -0.95917
H          1.25602       -1.43074       -2.18636
H          2.71670       -2.35285       -2.58455
H          4.75123       -0.40555       -1.29102
H          4.81005       -2.16272       -1.07101
