  38
        -40.51143249
 C          2.0184069758        1.0853489338       -0.7042355684
 C          3.1545573747        0.3453464111        0.0041008295
 C          4.4962320553        0.8058074074       -0.5700231019
 C          3.1118940795        0.6565184827        1.5021474479
 C          3.0227410235       -1.1812892485       -0.2314916157
 N          1.8722668524       -1.8477157310        0.3424712618
 H          1.0519971667        0.7408401122       -0.3450289067
 H          2.0664684020        0.9148381520       -1.7779321538
 H          2.0925081097        2.1559310842       -0.5229179201
 H          4.5633576927        0.5608627870       -1.6279310294
 H          5.3223181503        0.3206875426       -0.0542854242
 H          4.6087127989        1.8825853220       -0.4598173212
 H          2.1327196291        0.4273980309        1.9183251653
 H          3.3098428738        1.7125349243        1.6741332223
 H          3.8626570947        0.0762738301        2.0358536511
 H          3.9162628824       -1.6732720102        0.1672671525
 H          2.9971927449       -1.3641545700       -1.3104034138
 H          1.0084332661       -1.4238040181        0.0116265265
 H          1.8880689664       -1.7618860192        1.3529196453
 C         -3.5327713618        0.6353246587       -1.4418778661
 C         -3.3297673982        0.1968845713        0.0107981804
 C         -4.0064325401        1.2056880722        0.9413848463
 C         -3.9541256054       -1.1845093839        0.2236256675
 C         -1.8214246213        0.1644319956        0.3554294499
 N         -0.9871063058       -0.7407732477       -0.4140361432
 H         -4.5939590485        0.7271039136       -1.6622260902
 H         -3.1108342731       -0.0898250269       -2.1356933069
 H         -3.0609757600        1.5997008714       -1.6202460945
 H         -3.5788165929        2.1970161647        0.8080996412
 H         -3.8773476403        0.9142449808        1.9814318441
 H         -5.0722403058        1.2614813486        0.7312364837
 H         -3.5373671288       -1.9167805678       -0.4657893726
 H         -5.0276954476       -1.1418899747        0.0539773733
 H         -3.7813361638       -1.5301547044        1.2409693650
 H         -1.7070916223       -0.1106950782        1.4085260303
 H         -1.4124786075        1.1716880342        0.2265327188
 H         -1.0326048305       -0.5102432734       -1.4011000083
 H         -1.3104100991       -1.6961513635       -0.3038248788
