  38
        -40.51168256
 C          3.6902497798       -1.5406810855        0.0789946109
 C          3.2156389815       -0.0877762955        0.1686593282
 C          3.7149179823        0.5260126122        1.4783906775
 C          3.7781148317        0.7116182248       -1.0095682016
 C          1.6700110027       -0.0240450405        0.1716756634
 N          0.9840163056       -0.5560468375       -0.9940092363
 H          4.7746315444       -1.5875238191        0.1505666654
 H          3.4002212805       -1.9932968466       -0.8678813230
 H          3.2674956312       -2.1321974666        0.8888606796
 H          3.3287221728       -0.0264241148        2.3322113119
 H          3.3893010387        1.5602090879        1.5641915223
 H          4.8017423001        0.5039963469        1.5193593467
 H          3.4977343448        0.2632598230       -1.9612996497
 H          4.8645648669        0.7373209902       -0.9624375743
 H          3.4086273353        1.7348122188       -0.9877528043
 H          1.3612115926        1.0203627381        0.2747019309
 H          1.2968952791       -0.5720904919        1.0420740610
 H          1.2048775897       -1.5394642271       -1.1131968592
 H          1.2882396042       -0.0667145642       -1.8294499477
 C         -3.7299748627       -0.7039633392       -0.9598755127
 C         -3.1042671166       -0.0756232514        0.2877386910
 C         -4.1853264210        0.1131682190        1.3543221395
 C         -2.0101745113       -0.9966351011        0.8311320016
 C         -2.5081133307        1.3143350346       -0.0512354876
 N         -1.5497910259        1.3798992949       -1.1355871360
 H         -4.2385787379       -1.6303120739       -0.7008928112
 H         -2.9680452738       -0.9366991831       -1.7013476074
 H         -4.4570133808       -0.0278452246       -1.4065859557
 H         -4.9951202864        0.7334919781        0.9757955888
 H         -3.7706928372        0.5945421769        2.2374758679
 H         -4.6003122016       -0.8480770837        1.6509136211
 H         -1.2059821443       -1.1124318698        0.1080956898
 H         -2.4190264049       -1.9806807792        1.0522992316
 H         -1.5907822671       -0.5852003339        1.7471156341
 H         -2.0115271513        1.7048895143        0.8426567513
 H         -3.3285681115        1.9955609996       -0.3000838714
 H         -1.9888200187        1.0969234088       -2.0051134979
 H         -0.7760335809        0.7441747126       -0.9628585844
