  38
        -40.51148134
 C          3.7367176698        1.4330513306        0.1904144915
 C          3.3446539854       -0.0396229439        0.0454871606
 C          4.0924057207       -0.6457079332       -1.1440308591
 C          3.7214271864       -0.8007282710        1.3194683754
 C          1.8272988571       -0.1665191601       -0.2297586971
 N          0.9260917142        0.3669453985        0.7770380884
 H          4.8151686622        1.5261969174        0.2978103693
 H          3.2757613871        1.8800651407        1.0696559098
 H          3.4287175958        1.9984759088       -0.6868240548
 H          3.8424915204       -0.1180698541       -2.0617058760
 H          3.8289662014       -1.6937086113       -1.2690748328
 H          5.1674080170       -0.5788190429       -0.9918856612
 H          3.2505916629       -0.3603019112        2.1968675844
 H          4.7981174632       -0.7712734336        1.4709181508
 H          3.4139516557       -1.8423008084        1.2484007012
 H          1.5805805099       -1.2259090587       -0.3526762712
 H          1.5962116585        0.3436548875       -1.1695240902
 H          1.0943865934        1.3595418623        0.9048594980
 H          1.0871790215       -0.0904036610        1.6687406226
 C         -2.9629420967       -1.5955627771       -0.5200421228
 C         -3.2496887078       -0.2137702129        0.0724322216
 C         -4.7540285347       -0.0670977715        0.3112537665
 C         -2.5063710796       -0.0639441704        1.4013809616
 C         -2.8027580099        0.8964983529       -0.9121182205
 N         -1.4301796401        0.8591872556       -1.3744694083
 H         -3.3674398256       -2.3734099972        0.1243016566
 H         -1.8915201169       -1.7616807834       -0.6138300877
 H         -3.4195827969       -1.6940270233       -1.5034285720
 H         -5.3064219837       -0.2086602383       -0.6153928252
 H         -4.9845616089        0.9232308484        0.6982272520
 H         -5.0994784235       -0.8055226793        1.0320588222
 H         -1.4305678769       -0.1288274681        1.2524923488
 H         -2.8063730221       -0.8488072845        2.0929721557
 H         -2.7330069393        0.8984468673        1.8559523031
 H         -2.9555153198        1.8678173401       -0.4309071815
 H         -3.4457928940        0.8600718809       -1.7975495408
 H         -1.2652128197        0.0095639172       -1.9035062484
 H         -0.7922301660        0.8509950814       -0.5839062170
