  38
        -40.51160949
 C          1.9445896073        0.9156920490        1.0833821770
 C          3.0456428023        0.3065198865        0.2134559889
 C          4.0258779865        1.4046144600       -0.2053108358
 C          3.7966497892       -0.7629230914        1.0104635638
 C          2.4311359825       -0.3110884634       -1.0687997873
 N          1.5659459913       -1.4609785583       -0.9058277083
 H          1.1952456455        0.1706884981        1.3407193307
 H          1.4510584121        1.7275059018        0.5529001263
 H          2.3659366699        1.3138872654        2.0044365678
 H          3.5217579790        2.1570928786       -0.8080537086
 H          4.8423736250        0.9884264091       -0.7917078563
 H          4.4477330455        1.8933832729        0.6706565411
 H          3.1090252162       -1.5080530925        1.4060040225
 H          4.3184179507       -0.3100878817        1.8510636904
 H          4.5307644638       -1.2643728634        0.3821071144
 H          3.2464686782       -0.6093719572       -1.7364193000
 H          1.8482553891        0.4614416536       -1.5799662514
 H          0.7864275116       -1.2350243912       -0.2940017711
 H          2.0792832970       -2.2267107532       -0.4830169717
 C         -3.7970766436       -1.1415286212       -0.5569451986
 C         -3.1447043444        0.1968639047       -0.2011084238
 C         -3.4843142358        1.2262303998       -1.2811735577
 C         -3.6765692084        0.6869774130        1.1483546433
 C         -1.6057605884        0.0492682310       -0.1529465876
 N         -1.0612542937       -0.9079346151        0.7957986863
 H         -4.8706333575       -1.0161049051       -0.6795907581
 H         -3.6365558284       -1.8799884946        0.2268834096
 H         -3.3878291975       -1.5301016487       -1.4872846620
 H         -3.1210835797        0.8954631210       -2.2515253908
 H         -3.0257786618        2.1859835630       -1.0532570433
 H         -4.5607987286        1.3680871324       -1.3476844980
 H         -3.4961243280       -0.0452597087        1.9337298542
 H         -4.7497557761        0.8552551887        1.0918455125
 H         -3.1973578313        1.6221597392        1.4315609219
 H         -1.1675080837        1.0225505219        0.0868375021
 H         -1.2482399717       -0.2452584197       -1.1436346660
 H         -1.4137568388       -1.8376352200        0.5931216234
 H         -1.3452591756       -0.6671562841        1.7399931272
