  38
        -40.51157184
 C          2.3940237380        0.5912782675       -1.3679971064
 C          3.1639134393        0.2869534928       -0.0813361814
 C          4.6657405629        0.4198312514       -0.3429581894
 C          2.7494634740        1.2786726759        1.0083827155
 C          2.8763984411       -1.1652413840        0.3766849288
 N          1.5254646186       -1.4694562698        0.8033714113
 H          2.5842425093        1.6134843259       -1.6893265693
 H          1.3234291797        0.4717172226       -1.2156744153
 H          2.7053992811       -0.0818946988       -2.1642787951
 H          4.9891476460       -0.3044080242       -1.0875950656
 H          5.2323413095        0.2473998984        0.5697851092
 H          4.9020678831        1.4167921289       -0.7095279042
 H          1.6699418129        1.2726137097        1.1463509564
 H          3.0465202427        2.2882916946        0.7320456846
 H          3.2246966374        1.0293495614        1.9556870975
 H          3.5435495634       -1.4094682247        1.2097623002
 H          3.1150161070       -1.8427878997       -0.4492885223
 H          0.8621169717       -1.2180644568        0.0761906108
 H          1.2917930872       -0.9240861794        1.6261988117
 C         -3.6873596461        1.1356320243       -0.9189755793
 C         -3.2701922200        0.0817861693        0.1102157577
 C         -3.8674316516        0.4427699184        1.4720195681
 C         -3.7894030688       -1.2924439068       -0.3204116896
 C         -1.7301505863        0.0516788771        0.2569747015
 N         -0.9604137101       -0.3102110199       -0.9203195847
 H         -4.7718408742        1.1948405834       -0.9785059985
 H         -3.3133070177        0.8889560469       -1.9112944373
 H         -3.3054220762        2.1157326958       -0.6398448817
 H         -3.5974643456       -0.3017461350        2.2176631973
 H         -4.9524968391        0.4892523050        1.4113767365
 H         -3.5015245468        1.4110304791        1.8067075298
 H         -3.4432338992       -1.5497664495       -1.3200676252
 H         -4.8770222622       -1.2956175106       -0.3348478346
 H         -3.4529184429       -2.0622842973        0.3711981309
 H         -1.4667022353       -0.6615980418        1.0436650808
 H         -1.3888244704        1.0430498801        0.5722275606
 H         -1.1647242943        0.3278831906       -1.6827279696
 H         -1.2084304720       -1.2455682177       -1.2258338565
