  38
        -40.51165427
 C          2.6461779907        1.5057080545       -0.6449826945
 C          3.0725112692        0.2792040727        0.1654996792
 C          4.5208135615        0.4553568727        0.6271583778
 C          2.1636508418        0.1335982472        1.3875521872
 C          2.9924556257       -0.9977883854       -0.7096740042
 N          1.7350164193       -1.2697545571       -1.3751821266
 H          3.2261129732        1.5792379493       -1.5634568689
 H          2.8050273972        2.4137661631       -0.0669403071
 H          1.5897941005        1.4520670436       -0.9012604292
 H          4.8578022432       -0.4246344407        1.1709279428
 H          4.6096665795        1.3187224533        1.2836097534
 H          5.1810351692        0.6037154283       -0.2248781865
 H          1.1351013221       -0.0441659191        1.0832545403
 H          2.1938356661        1.0382412826        1.9919469605
 H          2.4886151424       -0.7019710245        2.0042243198
 H          3.2189276885       -1.8637287045       -0.0795652586
 H          3.7644397770       -0.9399484273       -1.4841463366
 H          1.5253060751       -0.5298644111       -2.0365401472
 H          0.9734052425       -1.2999014464       -0.7018853889
 C         -3.8358734871       -0.8194736864       -0.8875962773
 C         -3.2181393583        0.2019419075        0.0707827202
 C         -3.7319440170        1.5996424568       -0.2813387203
 C         -3.6177676275       -0.1349707425        1.5097774238
 C         -1.6773178003        0.2080721917       -0.0716306607
 N         -0.9799874524       -1.0271363466        0.2380533977
 H         -4.9214377601       -0.7763622920       -0.8344673148
 H         -3.5305446249       -1.8334343769       -0.6349157216
 H         -3.5342198978       -0.6137615957       -1.9127113824
 H         -3.4559756154        1.8641358590       -1.2997652811
 H         -3.3113689693        2.3437388865        0.3915925716
 H         -4.8159446594        1.6379712503       -0.1995601474
 H         -4.6964114157       -0.0597106965        1.6276847644
 H         -3.1477925366        0.5537809950        2.2092376886
 H         -3.3250197202       -1.1499025307        1.7734649834
 H         -1.2680035712        0.9840513656        0.5831719288
 H         -1.4220599076        0.4707276377       -1.1030773847
 H         -1.3091667373       -1.7759325989       -0.3623539045
 H         -1.1554899209       -1.3004882580        1.1993201688
