  38
        -40.51150134
 C          2.4572118434        0.4981565903       -1.4210985806
 C          3.2128837486        0.2552297127       -0.1130085695
 C          4.7190095645        0.2812861444       -0.3824553555
 C          2.8581676556        1.3535222054        0.8922976584
 C          2.8448276952       -1.1368352049        0.4597842418
 N          1.4825705195       -1.3250943115        0.9167249700
 H          2.7025153537        1.4794371103       -1.8226428276
 H          1.3820454574        0.4513277092       -1.2604891864
 H          2.7284972212       -0.2524019369       -2.1609323713
 H          4.9983856353       -0.5169384825       -1.0668788811
 H          5.2777063384        0.1496336727        0.5418954231
 H          5.0106133921        1.2310165969       -0.8264946562
 H          1.7803339412        1.4201120841        1.0271588370
 H          3.2117113855        2.3189405186        0.5361964199
 H          3.3204389302        1.1546652666        1.8577492256
 H          3.5048761421       -1.3550380523        1.3055776392
 H          3.0342967526       -1.8899648764       -0.3117926974
 H          0.8282496769       -1.0852854427        0.1777435278
 H          1.2912046774       -0.7071551242        1.6981481569
 C         -3.7346864950        1.1886666473       -0.8172688516
 C         -3.3130269366        0.0427172131        0.1064071280
 C         -3.9794443408        0.2242009039        1.4718641714
 C         -3.7537799529       -1.2936766482       -0.4963637505
 C         -1.7803394198        0.0559549639        0.3179266285
 N         -0.9491639267       -0.1227397566       -0.8601643777
 H         -4.8180328583        1.2177612611       -0.9101941556
 H         -3.3190554000        1.0648832289       -1.8159910035
 H         -3.3992150505        2.1444933708       -0.4193464492
 H         -3.6793521131        1.1676055400        1.9228138422
 H         -3.6975794675       -0.5821580783        2.1452277654
 H         -5.0624282757        0.2228865609        1.3696940593
 H         -3.3523774792       -1.4260822723       -1.4997419236
 H         -4.8385412519       -1.3356776330       -0.5649667055
 H         -3.4163874591       -2.1221235984        0.1232854117
 H         -1.5157215139       -0.7394537161        1.0208963439
 H         -1.4966474517        1.0121720193        0.7690757220
 H         -1.1452292080        0.6050825365       -1.5399594193
 H         -1.1519023029       -1.0158267049       -1.2975628286
