  38
        -40.51148952
 C          2.7335521798        1.3896059924       -0.8535996852
 C          3.0884846626        0.2848226382        0.1445288148
 C          4.4990374763        0.5255187860        0.6867634692
 C          2.0883772397        0.3025763265        1.3021397453
 C          3.0643501806       -1.0986466778       -0.5541273191
 N          1.8595233932       -1.4575255188       -1.2740725462
 H          3.3812814323        1.3402100794       -1.7273388651
 H          2.8551997074        2.3676869864       -0.3927007108
 H          1.6989366474        1.2988271404       -1.1786817024
 H          5.2223504109        0.5629706127       -0.1251774109
 H          4.7887098889       -0.2739573928        1.3653627813
 H          4.5435575026        1.4680912772        1.2287327456
 H          1.0847088462        0.0829853875        0.9464571962
 H          2.0788247616        1.2807719774        1.7791632335
 H          2.3596054924       -0.4407868335        2.0491256439
 H          3.2313659455       -1.8714815883        0.2029944796
 H          3.8950151811       -1.1465594517       -1.2659145073
 H          1.7152275335       -0.8187509306       -2.0488023896
 H          1.0464608795       -1.3852974023       -0.6673570916
 C         -3.8269374746       -0.5404783675       -1.0841685701
 C         -3.2580391807        0.2222444648        0.1149989001
 C         -3.8020860369        1.6524716654        0.1077604547
 C         -3.6792383608       -0.4716145766        1.4130241813
 C         -1.7152344898        0.2968164384        0.0216737392
 N         -0.9899212267       -0.9610009454        0.0395162760
 H         -4.9141283939       -0.5368305792       -1.0507876091
 H         -3.4978139280       -1.5782420188       -1.0850102521
 H         -3.5111402626       -0.0775247221       -2.0170362376
 H         -3.5094942366        2.1692110910       -0.8036514325
 H         -3.4181221174        2.2130391555        0.9572748282
 H         -4.8883467063        1.6464420185        0.1642601477
 H         -3.3642016079       -1.5136941174        1.4236663839
 H         -4.7618561805       -0.4511465122        1.5158361459
 H         -3.2437204539        0.0307582620        2.2746656463
 H         -1.3425475014        0.8978730387        0.8569577119
 H         -1.4448980421        0.8104480567       -0.9063847282
 H         -1.2967768245       -1.5534625621       -0.7251016790
 H         -1.1673367273       -1.4582037876        0.9060481451
