  38
        -40.51171727
 C          3.8008159219        1.0493076097       -0.6662265018
 C          3.1661571173       -0.1703064695        0.0068767342
 C          3.6396028090       -1.4416316191       -0.7011248475
 C          3.5883936579       -0.2247288043        1.4774075969
 C          1.6244226650       -0.1053294544       -0.1074297150
 N          0.9626073827        1.0349829050        0.5005391763
 H          4.8851472172        0.9652676853       -0.6510032391
 H          3.5312674450        1.9696033592       -0.1508369571
 H          3.4774387613        1.1263590364       -1.7024502259
 H          3.3558475905       -1.4240680997       -1.7511484650
 H          3.1979786158       -2.3233885196       -0.2418473770
 H          4.7220755573       -1.5299985900       -0.6406064085
 H          3.3188902481        0.6914947367        2.0001430445
 H          4.6665390544       -0.3457530503        1.5546634147
 H          3.1124601491       -1.0634672439        1.9817720355
 H          1.2017640276       -1.0061408462        0.3492118390
 H          1.3520342870       -0.1065369191       -1.1675068326
 H          1.2919139724        1.8973951110        0.0796531238
 H          1.1699804073        1.0754636112        1.4929939281
 C         -2.4530853055       -1.3952054861       -0.8733298193
 C         -3.0114843100       -0.3660831838        0.1125606430
 C         -4.4531635700       -0.7356705842        0.4685442901
 C         -2.1594843993       -0.3611191695        1.3832927616
 C         -3.0140441602        1.0454888246       -0.5279153927
 N         -1.7641832477        1.5260095550       -1.0809110125
 H         -2.5494783455       -2.3993193549       -0.4653668298
 H         -1.3980952268       -1.2119002615       -1.0674511606
 H         -2.9950050950       -1.3561260782       -1.8168096106
 H         -5.0695392978       -0.7877055546       -0.4265659792
 H         -4.8837772983        0.0069090338        1.1369364433
 H         -4.4871542352       -1.7037706187        0.9644242247
 H         -1.1407534500       -0.0521569862        1.1622066382
 H         -2.1309396520       -1.3558491724        1.8240590578
 H         -2.5760181906        0.3268675945        2.1162281016
 H         -3.3319895655        1.7685974976        0.2298786386
 H         -3.7543062918        1.0629836955       -1.3345396027
 H         -1.4768837933        0.9345371538       -1.8531927629
 H         -1.0269917728        1.4892244681       -0.3817239056
