  38
        -40.51163446
 C          3.7628475021       -0.1964862119       -1.3262152591
 C          3.0640441456        0.3184339299       -0.0654261254
 C          4.0898074677        1.0173202637        0.8298462279
 C          1.9701826270        1.3142532196       -0.4555391202
 C          2.4501331282       -0.8624868967        0.7292178609
 N          1.5421311988       -1.7411354764        0.0212468545
 H          4.2864527348        0.6160161266       -1.8257926678
 H          3.0424309152       -0.6116981847       -2.0284501700
 H          4.4889312650       -0.9676166018       -1.0743563851
 H          4.9007805700        0.3393877866        1.0877684990
 H          3.6231356802        1.3576174016        1.7518339281
 H          4.5139715267        1.8808840021        0.3214018519
 H          1.1921917604        0.8285169600       -1.0400651440
 H          2.3899602225        2.1258718784       -1.0467123813
 H          1.5126719168        1.7396956180        0.4353989726
 H          1.9035731562       -0.4560443137        1.5859490188
 H          3.2654316401       -1.4818613228        1.1179050424
 H          2.0222082096       -2.1888064675       -0.7519583451
 H          0.7634776321       -1.2124160962       -0.3624629082
 C         -3.6925479370        1.2128845242       -0.6193191053
 C         -3.1538477735        0.1202466013        0.3080347757
 C         -3.4839711686        0.4812381201        1.7579289705
 C         -3.8081087166       -1.2194233956       -0.0395955965
 C         -1.6155278655        0.0162220185        0.1826920500
 N         -1.0800640526       -0.3491348550       -1.1182052581
 H         -4.7654379685        1.3284135572       -0.4820998245
 H         -3.5161383863        0.9660227705       -1.6650188738
 H         -3.2147761499        2.1668194628       -0.4044577115
 H         -3.0227057170        1.4276389431        2.0315734855
 H         -3.1174371104       -0.2865278769        2.4355149386
 H         -4.5595496843        0.5728296562        1.8925574918
 H         -3.6569345360       -1.4726860462       -1.0876568856
 H         -4.8801191937       -1.1721791286        0.1388657354
 H         -3.3925379575       -2.0172892211        0.5725275348
 H         -1.2531247587       -0.7284631784        0.8969890567
 H         -1.1755672127        0.9813104685        0.4509122768
 H         -1.3669277533        0.3266814188       -1.8189152262
 H         -1.4360750367       -1.2571378043       -1.3981892401
