  38
        -40.51139399
 C          2.0046821914        1.1243886820       -0.6007132041
 C          3.1606041930        0.3413014979        0.0245730292
 C          4.4873672666        0.8612956461       -0.5331632141
 C          3.1421974028        0.5284969626        1.5435531900
 C          3.0381800058       -1.1620700728       -0.3331197566
 N          1.9072905514       -1.8857055175        0.2102832096
 H          2.0344108187        1.0424867678       -1.6854461758
 H          2.0725890097        2.1773551353       -0.3340380981
 H          1.0480117156        0.7421621445       -0.2534346167
 H          4.5375210277        0.7043236254       -1.6085837739
 H          5.3270787287        0.3444026844       -0.0732666772
 H          4.5920180482        1.9265717869       -0.3370975416
 H          2.1735263336        0.2535705402        1.9565036516
 H          3.3310002145        1.5694638068        1.7977865022
 H          3.9094222279       -0.0834914411        2.0147575248
 H          3.9450689252       -1.6756772612        0.0029779043
 H          2.9886019881       -1.2557197116       -1.4226363292
 H          1.0334954276       -1.4381509585       -0.0564740790
 H          1.9510964950       -1.8896575719        1.2235848685
 C         -3.5576124669        0.4768198906       -1.4910944454
 C         -3.3423242740        0.2100038378        0.0009279173
 C         -4.0245024614        1.3121992674        0.8141503911
 C         -3.9511550188       -1.1438795054        0.3747772891
 C         -1.8319385271        0.2320512637        0.3372312905
 N         -0.9910632467       -0.7409416572       -0.3368529234
 H         -3.0950419628        1.4179175670       -1.7822881477
 H         -4.6208239338        0.5344909118       -1.7131713803
 H         -3.1337908279       -0.3201320312       -2.0997877798
 H         -3.6095519743        2.2860583809        0.5636476889
 H         -3.8848853174        1.1445430684        1.8798505432
 H         -5.0922951505        1.3315694582        0.6076108830
 H         -3.7719750900       -1.3673908648        1.4246608961
 H         -3.5282894749       -1.9468003644       -0.2266566779
 H         -5.0255654273       -1.1325539448        0.2055236325
 H         -1.7088660613        0.0725893868        1.4130150086
 H         -1.4355028783        1.2240616645        0.0986775756
 H         -1.0413381963       -0.6134658047       -1.3422561355
 H         -1.3073356464       -1.6823372130       -0.1285998371
