  38
        -40.51164091
 C          2.5770592342        1.0743071663       -1.2520673105
 C          3.1026900315        0.3087507013       -0.0353219822
 C          4.6027687929        0.5693930075        0.1180391964
 C          2.3717150116        0.7848586170        1.2216330770
 C          2.8908890769       -1.2145024777       -0.2258004704
 N          1.5454705836       -1.6635922024       -0.5221518878
 H          1.4957752561        0.9794189933       -1.3310972153
 H          3.0292781469        0.6975128249       -2.1679405292
 H          2.8151296407        2.1322898334       -1.1632890875
 H          5.1388552647        0.2733334052       -0.7813249580
 H          5.0046603081        0.0046326023        0.9565494408
 H          4.7899044204        1.6265090228        0.2958464643
 H          1.3055834156        0.5801550579        1.1500346914
 H          2.5084403563        1.8562061446        1.3553292342
 H          2.7612313356        0.2772568973        2.1018571752
 H          3.2081969061       -1.7254735392        0.6886782736
 H          3.5358494704       -1.5601028852       -1.0402663017
 H          0.9001003591       -1.3326579531        0.1891563878
 H          1.2403849290       -1.2774983391       -1.4092493901
 C         -3.7592417062        0.4312440017       -1.4685061652
 C         -3.2151741784        0.0993358344       -0.0773145047
 C         -3.6448289499        1.1910049175        0.9062260254
 C         -3.7756901885       -1.2515156457        0.3750145320
 C         -1.6720292916        0.0352406087       -0.1709293050
 N         -0.9485483120       -0.3020385986        1.0421229663
 H         -3.4756606043       -0.3375564726       -2.1838992270
 H         -3.3669911481        1.3844323234       -1.8164688015
 H         -4.8448978259        0.4952462672       -1.4470160524
 H         -3.2286632845        2.1536999826        0.6156567614
 H         -3.3147197936        0.9631986227        1.9184162222
 H         -4.7289927488        1.2773686841        0.9222730758
 H         -3.4339879722       -2.0474250145       -0.2837610083
 H         -4.8630578803       -1.2328648663        0.3553713253
 H         -3.4658422799       -1.4870167137        1.3917927137
 H         -1.3006879815        1.0087901014       -0.5072785514
 H         -1.3984075465       -0.7093772581       -0.9246135958
 H         -1.2279665750       -1.2200575973        1.3719864810
 H         -1.1601734686        0.3674060917        1.7749493732
