  38
        -40.51162131
 C          2.1197509283        0.9579345332       -1.0135013420
 C          3.0757326921        0.3438356882        0.0109432344
 C          4.5066063726        0.7898134507       -0.2979370019
 C          2.6902211007        0.8142796412        1.4155429441
 C          3.0190074635       -1.2031405543       -0.0722667192
 N          1.7865580539       -1.8464435330        0.3340780653
 H          2.1344179594        2.0438791219       -0.9420182434
 H          1.1023325110        0.6144357795       -0.8438795025
 H          2.4136953396        0.6765068390       -2.0227010813
 H          4.8159162474        0.4293761402       -1.2767391034
 H          5.2000370219        0.3997576311        0.4442511844
 H          4.5767875246        1.8757769451       -0.2947299740
 H          1.6444597092        0.5958618253        1.6232829399
 H          2.8323506966        1.8892737670        1.5056915110
 H          3.3064714121        0.3236681744        2.1671006232
 H          3.8212260400       -1.6161757271        0.5481918513
 H          3.2135639229       -1.5011146488       -1.1074504731
 H          0.9979579997       -1.4736428913       -0.1891158570
 H          1.6093077502       -1.6680714474        1.3166959768
 C         -3.6053508611        0.7321145825       -1.3135622526
 C         -3.2315844873        0.1961830689        0.0710059411
 C         -3.7602621283        1.1530014732        1.1417966020
 C         -3.8582731478       -1.1855433708        0.2744696305
 C         -1.6932887132        0.1155152370        0.2182664874
 N         -0.9831345951       -0.7351778125       -0.7197383001
 H         -4.6823197007        0.8656022951       -1.3867530064
 H         -3.3022344117        0.0419705771       -2.0991528911
 H         -3.1279227765        1.6933649293       -1.4940033278
 H         -3.3320501498        2.1449225803        1.0149048857
 H         -3.5044329851        0.7943308167        2.1363883520
 H         -4.8428074547        1.2365169669        1.0760237993
 H         -3.5416761341       -1.8810463908       -0.5009511885
 H         -4.9430672867       -1.1157766502        0.2355497417
 H         -3.5755244395       -1.5954612568        1.2420686785
 H         -1.4556655782       -0.2466756071        1.2233792218
 H         -1.2790936221        1.1240034498        0.1189214764
 H         -1.1467402989       -0.4249421194       -1.6718641562
 H         -1.3121201107       -1.6920452627       -0.6445473437
