  17
        -31.06980825
 C         -0.0410835280        1.7560965240        0.9295781122
 C          0.0003261139        0.6031421787       -0.0708735601
 C          0.1253076837        1.1313597405       -1.5100893455
 C          1.2524233808       -0.2692308936        0.2055336573
 O          1.3270643150       -1.4059426550       -0.4849492918
 O          2.1162319109        0.0722876864        0.9550053745
 C         -1.2502081425       -0.2405482657        0.0759663885
 O         -1.3421766637       -1.2001602928       -0.8783652625
 O         -2.0839087492       -0.1209372095        0.9256270772
 H         -0.8691805464        2.4217655305        0.7019860604
 H          0.8924766740        2.3091857989        0.8909176866
 H         -0.1729511756        1.3718132004        1.9371925978
 H          1.0422258481        1.7087636444       -1.6027320367
 H         -0.7167597011        1.7816606402       -1.7368825607
 H          0.1448968937        0.3247657642       -2.2396887894
 H          0.5239118349       -1.5791244350       -1.0058241560
 H         -2.1517963326       -1.7192981819       -0.7490071628
