  17
        -31.07474751
 C         -0.2470382076        1.5007901635        1.2444742916
 C          0.0000338216        0.6490037519        0.0004653128
 C          0.2473886859        1.5020346155       -1.2427078105
 C          1.1783619454       -0.3089145420        0.2001368517
 O          1.3736514693       -0.6231200730        1.4789942992
 O          1.8430098312       -0.7606578014       -0.6911735348
 C         -1.1788290417       -0.3080383967       -0.2005599345
 O         -1.3706520756       -0.6246482624       -1.4793097727
 O         -1.8462064645       -0.7575626736        0.6898352657
 H         -1.0463661111        2.2107504254        1.0462368155
 H          0.6529180431        2.0481604090        1.5110052501
 H         -0.5398851431        0.8701431683        2.0787317537
 H          1.0473243403        2.2111664034       -1.0439361983
 H         -0.6522257439        2.0504356300       -1.5082972561
 H          0.5394240515        0.8720405884       -2.0777414193
 H          2.1010349337       -1.2601382266        1.5660006754
 H         -2.0981067154       -1.2614425773       -1.5673022697
