  17
        -31.07431195
 C         -0.0114276130        1.7306769207        0.8975232727
 C          0.0384695637        0.5852293668       -0.1117353039
 C          0.1038845120        1.1064943689       -1.5519232302
 C          1.2196216394       -0.3300231941        0.2172152846
 O          1.7900503029       -0.8573437677       -0.8608651328
 O          1.5863240121       -0.5694184995        1.3352116189
 C         -1.1940886278       -0.3158364127       -0.0220675726
 O         -2.2399295930        0.2799142565        0.5486843539
 O         -1.2409660928       -1.4371815712       -0.4494403727
 H         -0.9156080648        2.3160684307        0.7619099417
 H          0.8536920739        2.3750883856        0.7599221127
 H          0.0090714876        1.3367169502        1.9100506558
 H          1.0167157087        1.6782980634       -1.6976571377
 H         -0.7499835106        1.7519775945       -1.7449784067
 H          0.0924085886        0.2795388857       -2.2566485628
 H          2.4876233526       -1.4817988269       -0.6043280390
 H         -2.9992530281       -0.3246578639        0.5709338533
