  17
        -31.07434144
 C         -0.1448119817        1.6004342862        0.9713162567
 C          0.0245671630        0.5530249218       -0.1475682622
 C          0.2715721135        1.2288201603       -1.4917932609
 C          1.2686436727       -0.2893071468        0.2596028026
 O          1.0795204303       -1.1578822499        1.2397521692
 O          2.3350464572       -0.1113497993       -0.2513305320
 C         -1.2043290191       -0.3242426143       -0.1531028890
 O         -1.9430683553       -0.2386063108       -1.2466023007
 O         -1.4996760187       -1.0532685669        0.7730149584
 H         -0.9609186104        2.2768906205        0.7260782335
 H          0.7710884718        2.1785958267        1.0658946405
 H         -0.3606115413        1.1239115849        1.9256077850
 H          1.2031022266        1.7856786413       -1.4456126323
 H         -0.5427135415        1.9058761205       -1.7342506746
 H          0.3579454031        0.4872276630       -2.2813756184
 H          0.1249863387       -1.2723940219        1.4525678050
 H         -2.7153636811       -0.8253410978       -1.1895312119
