  17
        -31.07564956
 C         -0.0731766392        1.7383740956        0.9314529139
 C          0.0022374653        0.6126238542       -0.1045835824
 C          0.1775486388        1.1781442113       -1.5188146932
 C          1.2379726072       -0.2331782496        0.2051020866
 O          0.9537661833       -1.5288469034        0.3454352931
 O          2.3481603183        0.2069264001        0.3046777008
 C         -1.2270156130       -0.2815046788        0.0044878842
 O         -1.4830532783       -0.9493245510       -1.1226491380
 O         -1.9008497339       -0.3956903835        0.9912791071
 H         -0.3281445298        1.3316223712        1.9068621451
 H         -0.8383267884        2.4555006797        0.6458475193
 H          0.8877247033        2.2421030164        0.9920101134
 H         -0.6598974415        1.8260352385       -1.7649320725
 H          0.2274819255        0.3772786419       -2.2516092191
 H          1.0980314549        1.7551536905       -1.5602879842
 H          1.7577233921       -2.0385978271        0.5405982640
 H         -2.2443206214       -1.5370539438       -0.9948520573
