  17
        -31.07661928
 C         -0.0746251997        1.4835171318        1.2625664920
 C          0.0001133951        0.6190955270        0.0000259641
 C          0.0752335111        1.4836254090       -1.2624134138
 C          1.2363817675       -0.2668973245        0.0930600934
 O          1.0752793394       -1.2371875176        0.9988551782
 O          2.2494471914       -0.1171166933       -0.5288380816
 C         -1.2364637986       -0.2664423861       -0.0930560409
 O         -1.0761654641       -1.2360355755       -0.9997535988
 O         -2.2491060996       -0.1169779944        0.5296129246
 H          0.7831286019        2.1494446842        1.3105549302
 H         -0.0930637634        0.8552862137        2.1494606404
 H         -0.9873861013        2.0729891007        1.2417821471
 H          0.9880989540        2.0729217404       -1.2414128076
 H         -0.7823779437        2.1497271405       -1.3104861107
 H          0.0936879487        0.8554766960       -2.1493653415
 H          1.8769291883       -1.7811228462        1.0591893407
 H         -1.8779879552       -1.7797252732       -1.0599430436
  17
        -31.07577893
 C         -0.0992006765        1.8162630847        0.7942752306
 C          0.0091793468        0.6056656461       -0.1347557091
 C          0.2263032611        1.0350737431       -1.5900102350
 C          1.2292808760       -0.2262786686        0.2638842888
 O          1.0574320137       -1.5214049932       -0.0124546505
 O          2.2413174738        0.2149231808        0.7276780982
 C         -1.2168105252       -0.2842316398        0.0341046695
 O         -1.6867648935       -0.7649244492       -1.1167226282
 O         -1.7156646811       -0.5418733990        1.0960398350
 H          0.8702500597        2.3007267758        0.8731217154
 H         -0.4142753097        1.4954091426        1.7841021726
 H         -0.8265443431        2.5241945356        0.4055729371
 H          0.3346496305        0.1681347174       -2.2362817840
 H          1.1245014139        1.6445781404       -1.6560110071
 H         -0.6233534593        1.6193305124       -1.9335471413
 H          1.8496953716       -2.0307888598        0.2250416976
 H         -2.4417657853       -1.3513208517       -0.9497009090
  17
        -31.07564956
 C         -0.0731766392        1.7383740956        0.9314529139
 C          0.0022374653        0.6126238542       -0.1045835824
 C          0.1775486388        1.1781442113       -1.5188146932
 C          1.2379726072       -0.2331782496        0.2051020866
 O          0.9537661833       -1.5288469034        0.3454352931
 O          2.3481603183        0.2069264001        0.3046777008
 C         -1.2270156130       -0.2815046788        0.0044878842
 O         -1.4830532783       -0.9493245510       -1.1226491380
 O         -1.9008497339       -0.3956903835        0.9912791071
 H         -0.3281445298        1.3316223712        1.9068621451
 H         -0.8383267884        2.4555006797        0.6458475193
 H          0.8877247033        2.2421030164        0.9920101134
 H         -0.6598974415        1.8260352385       -1.7649320725
 H          0.2274819255        0.3772786419       -2.2516092191
 H          1.0980314549        1.7551536905       -1.5602879842
 H          1.7577233921       -2.0385978271        0.5405982640
 H         -2.2443206214       -1.5370539438       -0.9948520573
  17
        -31.07474751
 C         -0.2470382076        1.5007901635        1.2444742916
 C          0.0000338216        0.6490037519        0.0004653128
 C          0.2473886859        1.5020346155       -1.2427078105
 C          1.1783619454       -0.3089145420        0.2001368517
 O          1.3736514693       -0.6231200730        1.4789942992
 O          1.8430098312       -0.7606578014       -0.6911735348
 C         -1.1788290417       -0.3080383967       -0.2005599345
 O         -1.3706520756       -0.6246482624       -1.4793097727
 O         -1.8462064645       -0.7575626736        0.6898352657
 H         -1.0463661111        2.2107504254        1.0462368155
 H          0.6529180431        2.0481604090        1.5110052501
 H         -0.5398851431        0.8701431683        2.0787317537
 H          1.0473243403        2.2111664034       -1.0439361983
 H         -0.6522257439        2.0504356300       -1.5082972561
 H          0.5394240515        0.8720405884       -2.0777414193
 H          2.1010349337       -1.2601382266        1.5660006754
 H         -2.0981067154       -1.2614425773       -1.5673022697
  17
        -31.07434144
 C         -0.1448119817        1.6004342862        0.9713162567
 C          0.0245671630        0.5530249218       -0.1475682622
 C          0.2715721135        1.2288201603       -1.4917932609
 C          1.2686436727       -0.2893071468        0.2596028026
 O          1.0795204303       -1.1578822499        1.2397521692
 O          2.3350464572       -0.1113497993       -0.2513305320
 C         -1.2043290191       -0.3242426143       -0.1531028890
 O         -1.9430683553       -0.2386063108       -1.2466023007
 O         -1.4996760187       -1.0532685669        0.7730149584
 H         -0.9609186104        2.2768906205        0.7260782335
 H          0.7710884718        2.1785958267        1.0658946405
 H         -0.3606115413        1.1239115849        1.9256077850
 H          1.2031022266        1.7856786413       -1.4456126323
 H         -0.5427135415        1.9058761205       -1.7342506746
 H          0.3579454031        0.4872276630       -2.2813756184
 H          0.1249863387       -1.2723940219        1.4525678050
 H         -2.7153636811       -0.8253410978       -1.1895312119
  17
        -31.07431195
 C         -0.0114276130        1.7306769207        0.8975232727
 C          0.0384695637        0.5852293668       -0.1117353039
 C          0.1038845120        1.1064943689       -1.5519232302
 C          1.2196216394       -0.3300231941        0.2172152846
 O          1.7900503029       -0.8573437677       -0.8608651328
 O          1.5863240121       -0.5694184995        1.3352116189
 C         -1.1940886278       -0.3158364127       -0.0220675726
 O         -2.2399295930        0.2799142565        0.5486843539
 O         -1.2409660928       -1.4371815712       -0.4494403727
 H         -0.9156080648        2.3160684307        0.7619099417
 H          0.8536920739        2.3750883856        0.7599221127
 H          0.0090714876        1.3367169502        1.9100506558
 H          1.0167157087        1.6782980634       -1.6976571377
 H         -0.7499835106        1.7519775945       -1.7449784067
 H          0.0924085886        0.2795388857       -2.2566485628
 H          2.4876233526       -1.4817988269       -0.6043280390
 H         -2.9992530281       -0.3246578639        0.5709338533
  17
        -31.06980825
 C         -0.0410835280        1.7560965240        0.9295781122
 C          0.0003261139        0.6031421787       -0.0708735601
 C          0.1253076837        1.1313597405       -1.5100893455
 C          1.2524233808       -0.2692308936        0.2055336573
 O          1.3270643150       -1.4059426550       -0.4849492918
 O          2.1162319109        0.0722876864        0.9550053745
 C         -1.2502081425       -0.2405482657        0.0759663885
 O         -1.3421766637       -1.2001602928       -0.8783652625
 O         -2.0839087492       -0.1209372095        0.9256270772
 H         -0.8691805464        2.4217655305        0.7019860604
 H          0.8924766740        2.3091857989        0.8909176866
 H         -0.1729511756        1.3718132004        1.9371925978
 H          1.0422258481        1.7087636444       -1.6027320367
 H         -0.7167597011        1.7816606402       -1.7368825607
 H          0.1448968937        0.3247657642       -2.2396887894
 H          0.5239118349       -1.5791244350       -1.0058241560
 H         -2.1517963326       -1.7192981819       -0.7490071628
