  17
        -31.07661928
 C         -0.0746251997        1.4835171318        1.2625664920
 C          0.0001133951        0.6190955270        0.0000259641
 C          0.0752335111        1.4836254090       -1.2624134138
 C          1.2363817675       -0.2668973245        0.0930600934
 O          1.0752793394       -1.2371875176        0.9988551782
 O          2.2494471914       -0.1171166933       -0.5288380816
 C         -1.2364637986       -0.2664423861       -0.0930560409
 O         -1.0761654641       -1.2360355755       -0.9997535988
 O         -2.2491060996       -0.1169779944        0.5296129246
 H          0.7831286019        2.1494446842        1.3105549302
 H         -0.0930637634        0.8552862137        2.1494606404
 H         -0.9873861013        2.0729891007        1.2417821471
 H          0.9880989540        2.0729217404       -1.2414128076
 H         -0.7823779437        2.1497271405       -1.3104861107
 H          0.0936879487        0.8554766960       -2.1493653415
 H          1.8769291883       -1.7811228462        1.0591893407
 H         -1.8779879552       -1.7797252732       -1.0599430436
