  14
        -17.97960601
 C         -1.4402831457        0.7828713113       -0.4255343459
 C         -0.5905654254       -0.0990820961        0.4946109628
 N         -0.4898034058       -1.4820349161        0.0368859116
 C          0.8340300832        0.4724661371        0.6270168923
 O          1.5656082787        0.4060815511       -0.5716578004
 H         -0.9361874855        0.9046906117       -1.3826632391
 H         -1.5838557973        1.7653737798        0.0158883579
 H         -2.4170953308        0.3319450136       -0.5943203305
 H         -1.0313126751       -0.1198140401        1.4972965298
 H         -1.3794885144       -1.9546800548        0.1485226742
 H         -0.2708658886       -1.4940699435       -0.9556306159
 H          1.3594391318       -0.0670838520        1.4258061319
 H          0.7818925513        1.5306068216        0.8908233704
 H          1.6940859025       -0.5263221867       -0.7790766112
