  14
        -17.98015119
 C         -1.3469591295        0.8752901278        0.1037359044
 C         -0.4098676158       -0.3241009384        0.2810603489
 N         -0.9274216275       -1.5726898672       -0.2567384126
 C          0.9491478037       -0.0446785495       -0.3790301524
 O          1.6518041988        1.0078665968        0.2331208925
 H         -0.8564229261        1.7810943512        0.4502731845
 H         -2.2666279700        0.7337637313        0.6687183779
 H         -1.5981613650        1.0010762488       -0.9484335499
 H         -0.2429611953       -0.4897472449        1.3549320395
 H         -1.8237764974       -1.7894829146        0.1661075561
 H         -1.0760934024       -1.4827524518       -1.2570150883
 H          0.8017408533        0.2653425388       -1.4165618030
 H          1.5384135488       -0.9716519984       -0.3725081046
 H          1.8164499017        0.7730096260        1.1530853428
