  14
        -17.97873099
 C         -1.8095410659        0.6565345450       -0.0165473902
 C         -0.4974908399       -0.0375166164        0.3332037111
 N         -0.5445608256       -1.4183972482       -0.1106217403
 C          0.6955999617        0.7399007246       -0.2550507356
 O          1.8849485364        0.0830338764        0.1327725904
 H         -1.8408147802        1.6572024481        0.4058029682
 H         -2.6377296552        0.0769582379        0.3796334138
 H         -1.9233713931        0.7287022083       -1.0964990195
 H         -0.3717335222       -0.0628178149        1.4215126592
 H          0.3321552920       -1.8716442188        0.1247653713
 H         -0.6456355883       -1.4530760363       -1.1211530802
 H          0.6820195455        1.7734527338        0.1165813084
 H          0.6126528005        0.7640198592       -1.3532002925
 H          2.6417117724        0.5864292840       -0.1819189096
