  14
        -17.97791698
 C         -1.4270732177        0.7218097722       -0.4586969702
 C         -0.5854591555       -0.1149793348        0.5001665278
 N         -0.5667446539       -1.4883476957        0.0319502095
 C          0.8276559841        0.4892630322        0.6417557046
 O          1.4860421335        0.3942720456       -0.6048954779
 H         -1.5853057532        1.7195101386       -0.0578496605
 H         -2.3882769044        0.2400129446       -0.6100165419
 H         -0.9170776938        0.8005196194       -1.4152367886
 H         -1.0484171581       -0.1107710559        1.4953184800
 H         -0.0088563816       -2.0655554533        0.6532023573
 H         -0.1262023123       -1.5122007741       -0.8826649247
 H          1.3882534982       -0.0667187230        1.4098031360
 H          0.7477952653        1.5363372490        0.9637157611
 H          2.3446656154        0.8216449405       -0.5400707234
