  14
        -17.97763514
 C         -1.3452125091        0.8321335110        0.1467238654
 C         -0.3864312096       -0.3448135352        0.2831202196
 N         -1.0175785060       -1.5444370856       -0.2368986971
 C          0.9559570350       -0.0241472088       -0.4032425314
 O          1.5842212070        1.0276736293        0.2924589330
 H         -1.5771913135        1.0099078755       -0.9017360214
 H         -0.8871109868        1.7235928503        0.5638906542
 H         -2.2683276901        0.6162862259        0.6758132725
 H         -0.1796198317       -0.5158626040        1.3452741731
 H         -1.2271253518       -1.4297546692       -1.2235299386
 H         -0.4047806789       -2.3465473063       -0.1384930168
 H          0.7727443825        0.2564289039       -1.4526227952
 H          1.5916909935       -0.9247695757       -0.3951680328
 H          2.4167487929        1.2407781846       -0.1407660570
