  14
        -17.97969566
 C         -1.3713581298        0.8207928230        0.1170274737
 C         -0.3940748782       -0.3403745946        0.2927211697
 N         -1.0075484906       -1.5469165854       -0.2372023048
 C          0.9672547409       -0.0304626870       -0.3682460231
 O          1.6755888479        1.0104330043        0.2556864023
 H         -1.0350596908        1.7023449582        0.6578585717
 H         -2.3431925146        0.5291614710        0.5043589493
 H         -1.4808425145        1.0699315947       -0.9374796445
 H         -0.2236080501       -0.5069954250        1.3629023418
 H         -0.3999700659       -2.3469619183       -0.0996505458
 H         -1.1680897779       -1.4468117840       -1.2346642786
 H          0.8089731823        0.1922967750       -1.4364087924
 H          1.6174743914       -0.9075551618       -0.2946799833
 H          1.1396165534        1.8102921574        0.2207979341
