  14
        -17.97825799
 C         -1.4163279663        0.7500641069       -0.4403769440
 C         -0.5831905138       -0.1135947461        0.5004966706
 N         -0.6103372776       -1.4892854172        0.0276911661
 C          0.8473863370        0.4570247065        0.6361532497
 O          1.5513776744        0.4774120298       -0.5828896978
 H         -2.3760713946        0.2744379039       -0.6202427205
 H         -0.8974024320        0.8726391315       -1.3888509890
 H         -1.5795689954        1.7321760486       -0.0062712022
 H         -1.0342193861       -0.1130925800        1.5001807512
 H         -0.0178508327       -2.0831401548        0.5977545159
 H         -0.2964698877       -1.5417778648       -0.9360261084
 H          1.4028931088       -0.1277444332        1.3868225631
 H          0.8029350488        1.4947577814        0.9704029241
 H          1.5807913352       -0.4212325346       -0.9331884703
