  14
        -17.97841303
 C         -1.7955769826        0.6850697334       -0.0678013908
 C         -0.5073512236       -0.0045004563        0.3649078535
 N         -0.5001803003       -1.3792999512       -0.1325278462
 C          0.7071820619        0.7306515591       -0.2295844681
 O          1.9303253509        0.1075157695        0.0748013318
 H         -1.7753356982        1.7350966244        0.2107264911
 H         -2.6560858713        0.2169749415        0.4058196507
 H         -1.9076319265        0.6068045366       -1.1462075741
 H         -0.4264591336        0.0373150183        1.4658534224
 H         -1.3951412401       -1.8201287496        0.0477420993
 H          0.2062280912       -1.9237161025        0.3521688555
 H          0.7698889620        1.7360238415        0.1919985185
 H          0.5754364264        0.8074597742       -1.3168383722
 H          1.9343657255       -0.7518380590       -0.3615809034
