  14
        -17.97997866
 C         -1.3453886962        0.8407216941        0.0986930015
 C         -0.4005904508       -0.3420447971        0.2818339855
 N         -1.0225826811       -1.5436491036       -0.2467074754
 C          0.9709860975       -0.0403749730       -0.3605558842
 O          1.6301036402        1.0531952872        0.2277109700
 H         -2.2768720870        0.6570651418        0.6256864030
 H         -1.5642412492        0.9820959435       -0.9575294069
 H         -0.8847471166        1.7475013464        0.4811360996
 H         -0.2440772424       -0.5134635875        1.3567202552
 H         -0.4062043214       -2.3428582979       -0.1446334499
 H         -1.2199218409       -1.4273088111       -1.2353131556
 H          0.8389330000        0.2275929036       -1.4126046695
 H          1.6022652799       -0.9434182718       -0.3096340119
 H          1.7248330101        0.8848174569        1.1719689267
