  14
        -17.97771559
 C         -1.3342803336        0.8694803353        0.1388113238
 C         -0.3949814041       -0.3307821735        0.2881853016
 N         -0.9285184873       -1.5745642929       -0.2473909942
 C          0.9452746103       -0.0508019600       -0.3984110686
 O          1.5928520868        1.0047721476        0.2765106107
 H         -1.5793587885        1.0290576363       -0.9108376186
 H         -0.8470885363        1.7603422104        0.5237082588
 H         -2.2566889161        0.7041099449        0.6923153974
 H         -0.1916486129       -0.4944060901        1.3520593605
 H         -1.1447058074       -1.4609146714       -1.2333825854
 H         -1.7932748240       -1.8113092205        0.2270777107
 H          0.7692829448        0.2142188742       -1.4521708211
 H          1.5476680300       -0.9679924473       -0.3681172745
 H          2.4570920238        1.1445412508       -0.1226591241
