%nprocshared=4
%mem=8000mb
%chk=monomer.chk
%nprocshared=4
%mem=8000mb
#T wB97XD/def2svpp opt=tight freq int(grid=ultrafine) scf=(verytight,qc) Volume=tight

Monomer

0 1
 C         -1.8043938588        0.7110129251       -0.0278723550
 C         -0.5019540485       -0.0025957535        0.3415412142
 N         -0.4301446803       -1.3855182264       -0.1191364904
 C          0.7153819507        0.7235715642       -0.2458570875
 O          1.9099978618        0.0813299970        0.1091129524
 H         -1.9165306355        0.7551471945       -1.1103395800
 H         -1.8050200146        1.7257647284        0.3604790233
 H         -2.6591749489        0.1807465495        0.3884350676
 H         -0.3934843273       -0.0276646330        1.4321306572
 H         -1.1380302678       -1.9518458102        0.3341482957
 H         -0.5983071709       -1.4245927265       -1.1205943147
 H          0.7759940767        1.7455123654        0.1342837989
 H          0.6146730033        0.7640254045       -1.3430807582
 H          1.7375802625       -0.8685016617        0.0400057341


