  28
        -77.31994572
 C          1.8158905247       -0.5206612582       -1.6780378574
 C          2.1653077721       -0.2546660308       -0.2395216662
 N          3.6819131050       -0.0071148591       -0.0610865277
 O          4.2324987284        0.5273476544       -0.9722180636
 O          4.1381179077       -0.3814748357        0.9780474933
 N          1.4478537381        0.9647348138        0.3000702697
 O          2.1279181007        1.8761866595        0.6604910719
 O          0.2491306480        0.8937718304        0.3055925043
 N          1.8143427285       -1.4625126469        0.6645464634
 O          2.1148148309       -2.5231744592        0.2140574706
 O          1.3156151267       -1.2000543036        1.7140540151
 H          2.0801897617       -1.5470593178       -1.9307080443
 H          2.3687696492        0.1579174670       -2.3263538177
 H          0.7489743177       -0.3831538003       -1.8466591311
 C         -4.1211408408       -0.0871121079        0.2391960292
 C         -2.6672350930        0.1122140276       -0.1236560228
 N         -2.4042122491       -0.0464011405       -1.6016326245
 O         -1.2822700068        0.1743426537       -1.9635442704
 O         -3.3344950259       -0.3901845036       -2.2721420977
 N         -2.2609524870        1.5542560569        0.3127994982
 O         -2.0953681319        2.3261209752       -0.5776787800
 O         -2.2412154742        1.7304407898        1.4859795489
 N         -1.7950877915       -0.8795333336        0.6636035590
 O         -2.0424245206       -0.9498040728        1.8237035121
 O         -0.9791692488       -1.4908084036        0.0349735744
 H         -4.7425368228        0.6646257145       -0.2447282354
 H         -4.2340996349       -0.0080428915        1.3199669261
 H         -4.4655228075       -1.0679151694       -0.0853325575
