  28
        -77.32119930
 C          1.6503828768       -0.1711500574        1.7586334558
 C          2.2071447535       -0.3201764437        0.3692679657
 N          2.1748792427        1.0248355222       -0.3987649886
 O          2.5628446884        1.9609581699        0.2254545032
 O          1.7973933232        0.9712289012       -1.5279065883
 N          3.6880040399       -0.7663865446        0.3996967177
 O          4.3669138970       -0.3332951931       -0.4831961536
 O          3.9934429972       -1.4919802740        1.2936976860
 N          1.4543260998       -1.3490000988       -0.4477990532
 O          0.2838275518       -1.1283978145       -0.6045247378
 O          2.0817850403       -2.2796399790       -0.8543023233
 H          2.0217240855        0.7542931432        2.1976033556
 H          1.9651905063       -1.0095371926        2.3784683635
 H          0.5620214040       -0.1262374459        1.7411651443
 C         -3.5098670125       -0.1634346008       -1.4803576285
 C         -2.6392005665        0.2244387640       -0.3231267374
 N         -1.4106984186        1.0270853940       -0.7731951033
 O         -1.3858853220        1.3133179223       -1.9292969960
 O         -0.6203133432        1.3013021452        0.0810392981
 N         -3.3781492934        1.1233741408        0.6923114142
 O         -2.7340552727        1.4906119243        1.6257490719
 O         -4.5214068366        1.3511701279        0.4288588928
 N         -2.1574505066       -0.9948799964        0.4689537127
 O         -2.5487211835       -2.0503872507        0.0747723034
 O         -1.4625236874       -0.7651711482        1.4145169679
 H         -2.9525065992       -0.7977713818       -2.1667963603
 H         -3.8441760649        0.7214790961       -2.0175402513
 H         -4.3831658577       -0.7105054139       -1.1317701585
