  28
        -77.32054799
 C          1.5104536587        1.6061067932        0.9059640909
 C          2.2532384988        0.8474167439       -0.1594678618
 N          2.7019648093        1.7752212225       -1.3084776815
 O          2.5462755023        1.3508394999       -2.4124197469
 O          3.1672157112        2.8162709678       -0.9600156364
 N          3.5339877624        0.1826068202        0.3995442483
 O          3.4644617488       -0.2133204681        1.5197057612
 O          4.4557471479        0.1411814863       -0.3593243425
 N          1.4032135256       -0.2491024091       -0.7617785899
 O          0.3288408875        0.0957788997       -1.1683882685
 O          1.8624218875       -1.3521572964       -0.7740166834
 H          2.0263797015        2.5415692249        1.1187833956
 H          1.4634431286        1.0080930172        1.8155535845
 H          0.4944647871        1.8298006522        0.5803105901
 C         -1.9378505858       -2.0509673377       -0.7578880314
 C         -2.3452160969       -0.9575666467        0.1927742467
 N         -3.8247452327       -1.0992406167        0.6239437127
 O         -4.4011232026       -0.0688362839        0.8028529577
 O         -4.2252583078       -2.2151333291        0.7365555022
 N         -1.5078458030       -0.9639709856        1.4635724986
 O         -2.1023240549       -1.0302542781        2.4966617312
 O         -0.3234241304       -0.8942644447        1.2944599672
 N         -2.2141765426        0.4396227478       -0.4501620065
 O         -1.6856712635        1.2748160516        0.2223486807
 O         -2.6813469464        0.5369838973       -1.5383549505
 H         -2.3920251696       -2.9941196834       -0.4548077603
 H         -0.8555096063       -2.1662036422       -0.7717089882
 H         -2.2734004260       -1.8030912813       -1.7647407049
