  28
        -77.32051974
 C          2.3204084542       -0.8029897317        1.6413822322
 C          2.5196277163       -0.3756688345        0.2124472683
 N          2.0752946392        1.0619357958       -0.0249343001
 O          0.9570636406        1.3158666472        0.3222929582
 O          2.8707405151        1.7891347900       -0.5384762978
 N          4.0062671147       -0.4647194022       -0.2053590105
 O          4.7953913130       -0.1731140838        0.6379956317
 O          4.1989296484       -0.8110591180       -1.3316370775
 N          1.7367446359       -1.2711162458       -0.7692513636
 O          1.8428627076       -2.4393615828       -0.5813912481
 O          1.1314780021       -0.6959860549       -1.6256441700
 H          1.3822550234       -0.4117467208        2.0307980776
 H          3.1421741684       -0.4368847033        2.2563995995
 H          2.2918509759       -1.8909981871        1.6966755220
 C         -1.6793840337        0.9666344769       -1.3491612437
 C         -2.3750310823        0.4151988791       -0.1346254359
 N         -1.3887135892       -0.1130050199        0.8843272616
 O         -0.5923547492       -0.9067772151        0.4667497360
 O         -1.4800992420        0.3049413142        1.9996005263
 N         -3.2324289366        1.4928026874        0.5700443445
 O         -4.2493500516        1.0951194670        1.0547470611
 O         -2.7895734204        2.5975111807        0.5531254582
 N         -3.3300062023       -0.7395611694       -0.5049516613
 O         -3.3042192433       -1.6891916894        0.2165347326
 O         -3.9986925103       -0.5463705782       -1.4729585091
 H         -2.3982662013        1.0968300423       -2.1571333304
 H         -0.8949444349        0.2873064940       -1.6832255429
 H         -1.2317788858        1.9306248329       -1.1093864717
