  28
        -77.32055428
 C          2.2747450799        0.0967454143        1.7963924696
 C          2.5104112877        0.0247369135        0.3115163854
 N          4.0207714857        0.0084376403       -0.0257370673
 O          4.7176955506        0.6526129557        0.6937206313
 O          4.3197506793       -0.6458633362       -0.9788817751
 N          1.9168801688       -1.2622812961       -0.3016623124
 O          2.1801754896       -2.2629682128        0.2825259787
 O          1.2845857704       -1.1176212446       -1.3056479375
 N          1.9026279538        1.2112075145       -0.4219421553
 O          2.6390093909        1.8509116709       -1.1100360724
 O          0.7304903358        1.3792194062       -0.2359851870
 H          2.3704208056       -0.8985778228        2.2299929709
 H          1.2767994139        0.4746597286        2.0117038027
 H          3.0103681070        0.7561144745        2.2566900063
 C         -1.7560328333        0.1066356671       -1.6252653905
 C         -2.3949151921        0.0283570578       -0.2658983859
 N         -1.3615966960       -0.0287647683        0.8369177959
 O         -0.5187052550       -0.8727238430        0.7114647921
 O         -1.4647280763        0.7648427851        1.7244259368
 N         -3.2983143317        1.2537177097        0.0130434999
 O         -2.9230178733        2.2870588885       -0.4425104229
 O         -4.2777475892        1.0248088717        0.6576167380
 N         -3.2904025193       -1.2212378621       -0.1296819552
 O         -3.1953143378       -1.8208432804        0.8973083446
 O         -3.9892737143       -1.4431589188       -1.0698376686
 H         -0.9188554557       -0.5878513104       -1.6967692489
 H         -1.3877898011        1.1174702054       -1.7980912694
 H         -2.4889410968       -0.1433911585       -2.3913414546
