  28
        -77.31990009
 C          2.1628084559       -0.7195410803        1.6319860411
 C          2.3328524674       -0.3719761452        0.1765548693
 N          2.0583460659        1.1292499424       -0.0925017092
 O          2.5963545519        1.8737955952        0.6616308512
 O          1.3717210373        1.3736735852       -1.0373715234
 N          3.7833846855       -0.6323925658       -0.3059430749
 O          4.1567372397        0.0899423327       -1.1807730951
 O          4.3623375533       -1.5189130305        0.2372990392
 N          1.4146603857       -1.1880032408       -0.7101050623
 O          0.2408559874       -1.0159397075       -0.5153676207
 O          1.9289500666       -1.9149026501       -1.5020511018
 H          2.5187080609        0.1074390306        2.2466491717
 H          2.7435695611       -1.6109641711        1.8690476136
 H          1.1181960540       -0.9071267658        1.8743956785
 C         -1.8991086544        1.7670366441       -0.8873333351
 C         -2.2685510553        0.6158895610       -0.0009586060
 N         -1.2741936365        0.3876508645        1.1026222327
 O         -0.3373610947        1.1463961301        1.1316727142
 O         -1.4794025430       -0.5189821326        1.8535323487
 N         -3.6473638584        0.8091231780        0.6629095763
 O         -4.0032595845       -0.0633256401        1.3927136136
 O         -4.2135286153        1.8201581743        0.3668018843
 N         -2.3872613239       -0.7210265730       -0.8032796733
 O         -2.2968376762       -0.5954529496       -1.9837071074
 O         -2.5877836393       -1.6942660686       -0.1545723910
 H         -2.6222517635        1.8699278012       -1.6927282503
 H         -0.9135167980        1.6080504107       -1.3226812228
 H         -1.8783126453        2.6933230979       -0.3170008085
