  28
        -77.32054415
 C          1.7102384551        1.3103515219       -1.8969015460
 C          2.3322251998        0.4524492314       -0.8277101760
 N          3.8762742958        0.4368535362       -0.9355417678
 O          4.3946616190       -0.5921434838       -0.6216830816
 O          4.3787727028        1.4490701754       -1.3110694288
 N          1.9879332760        0.9425305688        0.5699570308
 O          2.9043854012        1.1837416686        1.2957665780
 O          0.8153378240        1.0310190958        0.8036291784
 N          1.8772379529       -1.0205463257       -0.9372756035
 O          1.9456681048       -1.4841235696       -2.0292991353
 O          1.5349135074       -1.5380963088        0.0838567569
 H          0.7082431988        1.6242458297       -1.6092303542
 H          1.6444880060        0.7451369748       -2.8264848119
 H          2.3232363771        2.1959607894       -2.0637754341
 C         -1.2881059996       -1.0436313102        1.7551206821
 C         -2.2396886417       -0.3833277401        0.7958624268
 N         -3.2501355285       -1.3924545801        0.2109142563
 O         -3.4554543048       -1.3040742281       -0.9610350970
 O         -3.7227035757       -2.1471419561        1.0038224861
 N         -3.0707787647        0.7262295738        1.4849111534
 O         -4.1916432711        0.8397058647        1.0875584603
 O         -2.5076814958        1.3435663373        2.3320756154
 N         -1.5124405969        0.2568254245       -0.3650016522
 O         -0.7309243337       -0.4489593473       -0.9387941163
 O         -1.7668613316        1.3996135225       -0.6064583282
 H         -0.8114667973       -0.2854148419        2.3758313184
 H         -0.5146430348       -1.5891099294        1.2143194727
 H         -1.8319661681       -1.7389344305        2.3933589471
