  21
        -24.05413206
 C         -2.3062418439        0.8560746965       -0.0847883113
 C         -0.7912764258        0.9544009797       -0.2320525994
 C         -0.0009426944       -0.2842961099        0.2345954909
 C         -0.4115921149       -0.6986181128        1.6487061780
 C         -0.2005813343       -1.4523376566       -0.7323851728
 C          1.5026327799        0.0724618541        0.2672863957
 O          2.0352055510        0.4682561807       -0.9721239085
 H         -2.6978147516       -0.0106389812       -0.6103967147
 H         -2.7710473324        1.7441740955       -0.5083495947
 H         -2.5968199897        0.7906867746        0.9599119122
 H         -0.4475600291        1.8230975485        0.3383296325
 H         -0.5657684500        1.1328989725       -1.2871030633
 H          0.2623609051       -1.4650817353        2.0251969312
 H         -1.4193329463       -1.1039531437        1.6529056910
 H         -0.3732167955        0.1517176890        2.3264086184
 H         -1.2541926852       -1.6918392518       -0.8467613870
 H          0.3122680025       -2.3364661524       -0.3609383399
 H          0.2124848044       -1.2049071309       -1.7075372843
 H          2.0788577632       -0.8104059466        0.5546272371
 H          1.6732807932        0.8536607115        1.0237472786
 H          1.5920964321        1.2758110992       -1.2533234775
