  21
        -24.05447500
 C         -1.6299820097        1.2103484932       -0.9778008234
 C         -1.1156974099        0.6397929343        0.3411322359
 C         -0.0761932376       -0.4928243254        0.2249025362
 C          0.3997348711       -0.8489029156        1.6369454902
 C         -0.6943049190       -1.7294330638       -0.4294771099
 C          1.1469156544       -0.0582437232       -0.6082185202
 O          1.7944258625        1.0923413988       -0.1239460409
 H         -0.8302013332        1.6500764171       -1.5693384186
 H         -2.3628257418        1.9892405470       -0.7761079703
 H         -2.1142948411        0.4419337641       -1.5743070316
 H         -1.9675928471        0.2526263944        0.9053969283
 H         -0.6863233991        1.4505143318        0.9368525623
 H          1.0584531348       -1.7135912786        1.6084857274
 H         -0.4453617252       -1.0792357442        2.2817675642
 H          0.9517766318       -0.0163619834        2.0669128392
 H         -0.9928535757       -1.5252999168       -1.4545262341
 H         -1.5694768359       -2.0538690829        0.1287128390
 H          0.0240911809       -2.5458570515       -0.4455374029
 H          0.8518306378        0.0795266088       -1.6582847435
 H          1.9016578851       -0.8478657296       -0.5741900544
 H          1.1669847638        1.8231296064       -0.1425354246
