  21
        -24.05198899
 C         -1.5959222618        1.6274862253        0.1929744334
 C         -1.1203346760        0.3918571277       -0.5633365249
 C         -0.0877985558       -0.4847167162        0.1674860004
 C         -0.5905728045       -0.9133971621        1.5470424738
 C          0.1707889002       -1.7305899244       -0.6856562759
 C          1.2397454072        0.2722854353        0.3364790462
 O          1.7189500193        0.6908623062       -0.9241097931
 H         -2.2956455507        2.1839081691       -0.4272278367
 H         -0.7659752242        2.2866281483        0.4328382933
 H         -2.1054089677        1.3573455139        1.1144413526
 H         -0.6710101926        0.7074735886       -1.5059879503
 H         -1.9884993903       -0.2289006311       -0.7968281820
 H          0.0950722988       -1.6311056903        1.9928895967
 H         -1.5674276639       -1.3825090956        1.4588816752
 H         -0.6719250170       -0.0631387882        2.2191765600
 H         -0.7508011524       -2.2878811602       -0.8354798955
 H          0.8935275782       -2.3830354034       -0.2001393094
 H          0.5661321376       -1.4379124813       -1.6543156356
 H          1.9692760972       -0.3957799263        0.8183635842
 H          1.0925400592        1.1387940403        0.9963397705
 H          2.5577042535        1.1446717215       -0.8007806705
