  21
        -24.05105013
 C         -1.4804946515        1.2965169185       -0.9026240815
 C         -1.1683490841        0.6453212715        0.4400301182
 C         -0.0576191788       -0.4212125463        0.4191431457
 C         -0.0445457977       -1.1127401444        1.7881195493
 C         -0.3063127087       -1.4631912191       -0.6715006948
 C          1.3302688816        0.2127152406        0.2133994426
 O          1.4809317313        0.7279955544       -1.0925043974
 H         -0.5751988503        1.6811610356       -1.3600667856
 H         -2.1783781385        2.1190187002       -0.7574505027
 H         -1.9353821694        0.5828319379       -1.5838735997
 H         -2.0797216423        0.1775881577        0.8219319736
 H         -0.8794057247        1.4227014745        1.1522996494
 H          0.1172620107       -0.3889170593        2.5843976039
 H          0.7453517873       -1.8592159766        1.8380684194
 H         -0.9946937805       -1.6104643855        1.9652821468
 H          0.3941662193       -2.2892821382       -0.5670472693
 H         -0.1662970051       -1.0177902266       -1.6511797607
 H         -1.3176400368       -1.8553924457       -0.5970858355
 H          2.0939373322       -0.5582415139        0.3967584568
 H          1.4730143926        1.0128997526        0.9554225379
 H          2.3757199108        1.0679346868       -1.1868876732
