  21
        -24.05440784
 C         -1.7451667822        1.1243099097       -0.9781535547
 C         -1.0591313629        0.7224623416        0.3225356215
 C         -0.0756620460       -0.4572349308        0.2188794221
 C          0.3742859216       -0.8320367411        1.6378706314
 C         -0.7277077546       -1.6813245050       -0.4265448630
 C          1.1571126415       -0.0634856097       -0.6206502543
 O          1.8407561878        1.0706981414       -0.1487162893
 H         -1.0161584295        1.4104304235       -1.7311175190
 H         -2.3919439593        1.9799744545       -0.7959047392
 H         -2.3577147719        0.3167273824       -1.3700560472
 H         -1.8248408717        0.4668240697        1.0592607339
 H         -0.5072387244        1.5858465973        0.7012282280
 H          1.1644348932       -1.5807391971        1.6071400942
 H         -0.4616728107       -1.2445096557        2.1981315872
 H          0.7374272173        0.0395764495        2.1802604735
 H         -0.0668324708       -2.5425640310       -0.3520951296
 H         -0.9346347852       -1.5061477624       -1.4785909365
 H         -1.6609708433       -1.9214448654        0.0775407912
 H          0.8521152570        0.1865051662       -1.6384960544
 H          1.8394499798       -0.9256929596       -0.6757269021
 H          2.1510299698        0.8879542666        0.7447018931
