  21
        -24.05266372
 C         -1.4408671779        1.4204756127       -0.8410457607
 C         -1.3045341451        0.5036904351        0.3718088459
 C         -0.0756194986       -0.4273424912        0.4030360721
 C         -0.0549352080       -1.1086639364        1.7767959073
 C         -0.1717863592       -1.5038527251       -0.6796577295
 C          1.2486845086        0.3545691984        0.2485182823
 O          1.6333822272        0.6349096148       -1.0731623744
 H         -2.4084623875        1.9182016745       -0.8096535488
 H         -1.3873690469        0.8610470514       -1.7721969766
 H         -0.6787360666        2.1978463875       -0.8398390632
 H         -2.1968800400       -0.1243536080        0.4315939283
 H         -1.2857085628        1.1260099886        1.2705001278
 H          0.7446999166       -1.8435791071        1.8286295157
 H         -0.9986897852       -1.6166045749        1.9622071281
 H          0.1014210194       -0.3762709243        2.5662537051
 H         -0.1753687066       -1.0687780170       -1.6751023398
 H         -1.0804946896       -2.0876120911       -0.5515466098
 H          0.6837403126       -2.1716347961       -0.6145681262
 H          2.0678045372       -0.2478777748        0.6499373531
 H          1.1903159236        1.2818258193        0.8393851386
 H          0.9345407460        1.1434322684       -1.4973150122
