  21
        -24.05426528
 C         -2.5637725911        0.5140077446       -0.1328538027
 C         -1.1283418723        0.9530137857       -0.4013251331
 C         -0.0417532573       -0.0416075848        0.0443537185
 C         -0.0114200987       -0.1622674998        1.5712634964
 C         -0.2546804597       -1.4223119737       -0.5787910155
 C          1.3119364109        0.5156260743       -0.4528134316
 O          2.4226247326       -0.2779277496       -0.1194123944
 H         -3.2500012541        1.2834374528       -0.4800087365
 H         -2.7410333212        0.3625446357        0.9285259181
 H         -2.7953629782       -0.4072800564       -0.6596999424
 H         -0.9517901719        1.9071052626        0.1021439193
 H         -1.0147802666        1.1260073393       -1.4744263725
 H         -0.9776797497       -0.4851794189        1.9482088110
 H          0.2333390804        0.7948597194        2.0296606564
 H          0.7227335326       -0.9024845491        1.8853817192
 H          0.6471671091       -2.0185922929       -0.4578279518
 H         -0.4614319864       -1.3319761285       -1.6426479628
 H         -1.0802804001       -1.9443004854       -0.1027109525
 H          1.4455591534        1.5392490040       -0.0709329774
 H          1.3090026540        0.5578140737       -1.5447078564
 H          2.4907155818       -0.3172700241        0.8407308903
