%chk=monomer.chk
%nprocshared=4
%mem=8000mb
#T wB97XD/def2svpp opt=tight freq int(grid=ultrafine) scf=(verytight,qc) Volume=tight

Monomer

0 1
 C         -0.5422965508       -1.4746238992       -0.4341112124
 C         -0.4451006375       -0.0043933941       -0.0197912127
 C         -1.6711087226        0.7765836481       -0.4974077206
 O         -0.3088532674        0.1024182132        1.3944754223
 C          0.8448504458        0.6230257666       -0.5828678508
 O          1.9907073609        0.0022637346       -0.0692042816
 H         -1.3838827188       -1.9568039441        0.0611389363
 H          0.3733953494       -1.9930624365       -0.1597525148
 H         -0.6782564644       -1.5518276295       -1.5089298192
 H         -1.7065927549        0.7965534010       -1.5827300747
 H         -1.6274098736        1.7987096936       -0.1285286504
 H         -2.5834239187        0.3117666539       -0.1270723415
 H         -1.0829606267       -0.2934155847        1.8078101099
 H          0.8468073633        1.6954545699       -0.3394876504
 H          0.8801407961        0.5048724095       -1.6671349706
 H          1.8775111624       -0.0276755751        0.8899184739



