  19
        -20.25240130
 C          0.5269863713        0.8804031191       -1.2529706201
 C          0.4427792630        0.0049858318       -0.0000014532
 C          1.6094584158       -0.9850668118        0.0025971622
 C          0.5263581337        0.8862428107        1.2488971731
 C         -0.8768023813       -0.8073549060        0.0015075684
 N         -2.1184270373       -0.0607360905        0.0001179365
 H          1.4833515814        1.3977661688       -1.2879228606
 H         -0.2593884552        1.6332515830       -1.2609209704
 H          0.4325663461        0.2728547965       -2.1508951324
 H          1.5724379313       -1.6227671747       -0.8778844268
 H          1.5716198804       -1.6191141920        0.8856797618
 H          2.5593849357       -0.4547086037        0.0019388667
 H         -0.2599860060        1.6391619983        1.2528925430
 H          1.4827239809        1.4037353033        1.2819156710
 H          0.4314477336        0.2828951295        2.1496015067
 H         -0.8902585033       -1.4508503271        0.8864289976
 H         -0.8902218928       -1.4542384368       -0.8809423133
 H         -2.1770709969        0.5304330524       -0.8215118874
 H         -2.1770571985        0.5333758839        0.8196258064
  19
        -20.25078725
 C          1.0321000386        0.9326553980       -1.2828168847
 C          0.3838455466        0.1790600674       -0.1189457051
 C          1.1122286395       -1.1448702004        0.1117071049
 C          0.4694782174        1.0394757172        1.1444020557
 C         -1.0859985429       -0.1059821632       -0.4792838302
 N         -1.7603412105       -0.8728515803        0.5573762119
 H          2.0827818074        1.1190893174       -1.0729213397
 H          0.5399308689        1.8897281923       -1.4443453731
 H          0.9639189461        0.3536362933       -2.2011913105
 H          1.1460536002       -1.7247024361       -0.8074865561
 H          0.5861535050       -1.7259869989        0.8635042132
 H          2.1313920439       -0.9665105582        0.4466571458
 H          0.1178742772        0.4869647216        2.0119379330
 H         -0.1274471538        1.9435858965        1.0367158231
 H          1.5008440578        1.3326573118        1.3276384697
 H         -1.1093011853       -0.7079515576       -1.3923986105
 H         -1.5878634977        0.8529948411       -0.6991487138
 H         -1.8776656942       -0.3071558668        1.3910248083
 H         -2.6842663276       -1.1456142879        0.2414918666
