  10
        -42.15914696
 F         -2.7597362676        0.0468022971        1.0915023112
 C         -2.0313784916       -0.0000752762        0.0000816356
 F         -1.2786393665       -1.0779670868        0.0211242371
 F         -2.8166810221       -0.0349281637       -1.0516478294
 F         -1.2640945225        1.0661472023       -0.0610392192
 F          2.7676524576        1.0866552917       -0.0339981849
 C          2.0314056012        0.0000508254       -0.0000965935
 F          1.2825991089       -0.0562021323       -1.0794460461
 F          2.8089519123       -1.0568303937        0.0489489740
 F          1.2599305608        0.0263384435        1.0645652138
