%nprocshared=4
%mem=8000mb
#T wB97XD/def2svpp opt freq int(grid=ultrafine) scf=(verytight,qc)

Comment gs min

0 1
F          0.98723        0.08518        0.05238
C          2.33076        0.08518        0.05238
F          2.77860        1.34432       -0.08569
F          2.77860       -0.42482        1.21187
F          2.77860       -0.66397       -0.96903


