  18
        -47.04074040
 O          1.6477591908        0.9008182544        1.9084579209
 C          2.0133266002        1.1413838404        0.5958519318
 C          2.5537704679       -0.1139899369       -0.1082178281
 Cl         3.9732673596       -0.7468855099        0.7433770034
 Cl         1.3135871092       -1.3796566034       -0.1489648295
 Cl         3.0015247698        0.2886345733       -1.7788823887
 H          0.8271055326        0.3797309576        1.9331320704
 H          2.8173663920        1.8834825338        0.6172525364
 H          1.1827112102        1.5310555515       -0.0087423484
 O         -1.0789485308        0.0247926300        1.9074034825
 C         -1.9317980849       -0.7425158059        1.1204386181
 C         -2.5807496978        0.0802884342        0.0021061665
 Cl        -3.6730769271       -0.9440584229       -0.9455618513
 Cl        -3.5184080219        1.4179293010        0.7261070272
 Cl        -1.3492478309        0.7708751987       -1.0692034031
 H         -1.5747687987        0.7561074058        2.3024989999
 H         -2.7349976184       -1.2003854281        1.7140131329
 H         -1.3202053300       -1.5302476337        0.6731890856
