  18
        -47.04092579
 O          0.9095589997       -1.0871085444        1.5059516311
 C          1.6538762375        0.0570685003        1.2257750161
 C          2.3969964489       -0.0505960007       -0.1085358640
 Cl         3.3382069493        1.4242761901       -0.3916466573
 Cl         3.5150147755       -1.4451811052       -0.0429139253
 Cl         1.2691432288       -0.2970001641       -1.4503777249
 H          1.4941511852       -1.8578237131        1.4984212275
 H          2.3952196683        0.2617788484        2.0107559221
 H          0.9458150523        0.8888929478        1.1781001833
 O         -1.3837761798        0.3861998041        2.3461219440
 C         -2.6224516716        0.2863376343        1.7365191640
 C         -2.5259417369        0.2012829713        0.2068966001
 Cl        -4.1496041188        0.2881474211       -0.5039634796
 Cl        -1.5427612928        1.5326956232       -0.4258663294
 Cl        -1.7771484291       -1.3404483964       -0.2697690104
 H         -0.8267667109       -0.3747358700        2.1097866381
 H         -3.1740111546        1.1941576511        1.9989629379
 H         -3.1918033788       -0.5896740338        2.0817413261
