  18
        -47.03994856
 O          0.9218834086       -0.5105023383        1.2743911666
 C          1.2253768156        0.2852364243        0.1697897929
 C          2.6656476878        0.0821104725       -0.3032592917
 Cl         3.7845663446        0.5075022535        1.0233206640
 Cl         2.9438015540       -1.6099962524       -0.7574019016
 Cl         2.9969684305        1.1300891387       -1.6922052631
 H          1.5581467521       -0.3250325182        1.9801201751
 H          1.0793813980        1.3525535540        0.3866176780
 H          0.5445726339       -0.0149250586       -0.6308184903
 O         -1.4860153212        0.6468019238        2.1550818517
 C         -2.7428471708        0.2049679439        1.7835405707
 C         -2.8743357230       -0.0102389306        0.2690575578
 Cl        -4.5645145207       -0.3445385452       -0.1496371847
 Cl        -2.3266288719        1.4279744312       -0.6105368785
 Cl        -1.8785151467       -1.3990464648       -0.2379444368
 H         -0.8017208946        0.0110992197        1.8723155735
 H         -3.4503857262        0.9838882467        2.0837248588
 H         -3.0206620216       -0.7384039444        2.2773485767
