  18
        -47.03957637
 O          0.7492459364        0.6573408347        1.4735588925
 C          2.1138440361        0.7625119316        1.2449065211
 C          2.5107035611        0.2397674700       -0.1417375921
 Cl         2.0265927808       -1.4717820600       -0.2888155827
 Cl         1.7067981970        1.1689901126       -1.4187627132
 Cl         4.2674634295        0.3604135462       -0.3481646093
 H          0.4837405563       -0.2743021498        1.4216436664
 H          2.7015380594        0.2121753699        1.9935381290
 H          2.3634768298        1.8251478349        1.3045139787
 O         -1.9002558622        0.4516432310        2.4851086084
 C         -2.9642234145        0.3267279862        1.6076070940
 C         -2.5384314653       -0.1623011788        0.2161409925
 Cl        -3.9730195001       -0.5438660744       -0.7555817343
 Cl        -1.6015262288        1.1023574547       -0.6155254077
 Cl        -1.5291028283       -1.6159119819        0.3543302667
 H         -1.2209997392        1.0391925241        2.1198989770
 H         -3.5110907371        1.2719644577        1.4716700153
 H         -3.6405802659       -0.4136104112        2.0454558322
