  18
        -47.04031306
 O          1.5792718104       -0.2245717311        2.3082771294
 C          2.7649818325       -0.3277774987        1.6083166134
 C          2.7040445129        0.3065533608        0.2055020008
 Cl         4.3473001175        0.4712947903       -0.4500458530
 Cl         1.7707333903       -0.7151078294       -0.9169051969
 Cl         1.9369392068        1.9026155373        0.2798763080
 H          0.8739668826       -0.7620432020        1.8996230380
 H          3.1032038704       -1.3672386686        1.4887998288
 H          3.5140766613        0.2230921954        2.1861766850
 O         -0.6879470046       -1.2679693425        0.9920507445
 C         -1.4223736091       -0.0864952198        0.8912432214
 C         -2.5812135539       -0.2160265925       -0.0986065123
 Cl        -3.4570462566        1.3196983920       -0.2040725758
 Cl        -1.9266146522       -0.6215936688       -1.7117945725
 Cl        -3.6973550587       -1.5008782516        0.3992015007
 H         -0.3984352875       -1.5328259745        0.1043820535
 H         -0.7943327216        0.7566271275        0.5701171945
 H         -1.8196032039        0.1220940424        1.8876284083
