  18
        -47.04056324
 O          1.5832776258       -0.1612306629        2.4145352741
 C          2.7649251898        0.0359947637        1.7231632165
 C          2.6346010344       -0.2487905937        0.2193557692
 Cl         4.2373611004       -0.2166876794       -0.5398591692
 Cl         1.8974426013       -1.8402081098       -0.0472604347
 Cl         1.6122909348        0.9857303287       -0.5545710705
 H          0.8809057651        0.4158751065        2.0666172726
 H          3.4930433584       -0.6642902801        2.1439281892
 H          3.1518714315        1.0603541174        1.8318332703
 O         -0.8598772135        0.9355769459        1.4415119587
 C         -1.4682486367       -0.2081586760        0.9269651912
 C         -2.4757872850        0.1266924068       -0.1756080425
 Cl        -3.2254019360       -1.3609638434       -0.7780859371
 Cl        -3.7496832900        1.1846709998        0.4972713673
 Cl        -1.6859985945        0.9768580833       -1.5159273999
 H         -1.5402169922        1.5281660195        1.7906027590
 H         -1.9907627189       -0.7777410445        1.7076404076
 H         -0.6732891429       -0.8292596585        0.5056765265
