  18
        -47.04054484
 O          1.6508431013        0.1033971622        2.3850528830
 C          2.8144456802       -0.0052213041        1.6453345887
 C          2.5839312504       -0.5999706973        0.2477965066
 Cl         1.6838667050        0.5499336054       -0.7705474543
 Cl         4.1432659603       -0.9417584500       -0.5252916267
 Cl         1.6496175898       -2.1035949430        0.3620341644
 H          1.0062938666        0.6746533668        1.9311205026
 H          3.4752426999       -0.6782539244        2.2004812934
 H          3.3220053639        0.9619710191        1.5116195969
 O         -0.6662622679        1.2967048011        1.2390683465
 C         -1.4409138177        0.1794689762        0.9316611289
 C         -2.4413574886        0.4694498514       -0.1899835662
 Cl        -3.3983290059       -0.9811788267       -0.5332381646
 Cl        -3.5412222111        1.7784041182        0.3307325311
 Cl        -1.6032984902        0.9890928649       -1.6634727541
 H         -1.2466086582        2.0234060973        1.5053175053
 H         -1.9999454722       -0.1820473005        1.8054936618
 H         -0.7532606072       -0.6032952187        0.6007501484
