  18
        -47.04033613
 O          0.7961031793       -1.0238718867        1.3038766907
 C          1.5597448998        0.1196970843        1.0699761236
 C          2.5254215862       -0.0642115764       -0.1010151193
 Cl         3.4415233444        1.4280482885       -0.3669673208
 Cl         3.6500059056       -1.4010226134        0.2083455177
 Cl         1.5876764955       -0.4382910637       -1.5756696585
 H          0.4004510203       -1.3138030496        0.4652911182
 H          2.1302951669        0.3091722297        1.9825710716
 H          0.9255666415        0.9917491782        0.8551990312
 O         -1.4204333009        0.3793203414        2.3370317121
 C         -2.6573601662        0.1565145864        1.7638571070
 C         -2.6322862369        0.1888180430        0.2242707806
 Cl        -4.2917786278        0.2809603093       -0.4018534490
 Cl        -1.7073741487        1.5850551197       -0.3542641419
 Cl        -1.8838077012       -1.2945823030       -0.4273851057
 H         -0.7921315333       -0.3362351270        2.1241115414
 H         -3.3046838477        0.9715793022        2.1026886547
 H         -3.1032893434       -0.8012654355        2.0689199207
