  18
        -47.03957437
 O          0.8568933200        0.0792177368        1.6660403145
 C          2.0344677479        0.6374558109        1.1842336034
 C          2.4885570659        0.0001764806       -0.1339833081
 Cl         4.0403739763        0.7011570305       -0.6308811898
 Cl         2.7000612862       -1.7574118682        0.1093835713
 Cl         1.2947721493        0.2537368716       -1.4157504190
 H          0.9624741529       -0.8804970373        1.7458457041
 H          2.8580543826        0.5382149645        1.9061633630
 H          1.8324135686        1.6982161590        1.0138749128
 O         -1.8045854009       -0.5339029589        2.4041670084
 C         -2.8946549062       -0.1138079842        1.6594839521
 C         -2.5468659621        0.1370100580        0.1871287535
 Cl        -4.0295287841        0.4440411805       -0.7393944650
 Cl        -1.4925298834        1.5630236173        0.0548389791
 Cl        -1.7065520011       -1.2609182545       -0.5009404797
 H         -1.0578840245        0.0728829655        2.2758513893
 H         -3.3398832861        0.8117333084        2.0566584373
 H         -3.6380635184       -0.9150763739        1.7125364418
