  18
        -47.04032555
 O          1.4477061771       -0.2375585496        2.3665570740
 C          2.6820166604       -0.2270946697        1.7472821401
 C          2.6165371794       -0.5678656521        0.2462234473
 Cl         1.9731366830        0.8066083119       -0.6906369588
 Cl         4.2484103855       -0.9213208539       -0.3609017219
 Cl         1.5706167016       -1.9716700973       -0.0271786255
 H          0.8711323949        0.4748421090        2.0303561340
 H          3.2787688406       -1.0034403894        2.2367033510
 H          3.2027313850        0.7363055241        1.8468951814
 O         -0.6034962831        1.2500326231        1.1330563754
 C         -1.5051520241        0.1949385182        0.9938511426
 C         -2.5196480780        0.4512053848       -0.1212910152
 Cl        -3.6169102047       -0.9312960788       -0.2669987903
 Cl        -3.4591131200        1.9203659752        0.2028350712
 Cl        -1.6457548530        0.6622925881       -1.6661857772
 H         -0.2113917882        1.4437327856        0.2658029350
 H         -2.0313952008        0.1034910193        1.9472018684
 H         -0.9906754053       -0.7516312556        0.7749500706
