  18
        -47.03996752
 O          0.8744551487        0.4024437885        1.7062321056
 C          2.1913739538        0.5635134522        1.3002678756
 C          2.4426141006       -0.0007026034       -0.1035027259
 Cl         4.1471579279        0.2208538660       -0.5412039669
 Cl         2.0665658608       -1.7461596526       -0.1135748845
 Cl         1.4219644323        0.8083312792       -1.3017748188
 H          0.6400382338       -0.5383267669        1.6886584394
 H          2.8978165219        0.0771456670        1.9886393947
 H          2.3876380987        1.6390397331        1.2873797805
 O         -1.7495861346       -0.3401318206        2.4495944727
 C         -2.8543723851       -0.2202673612        1.6205345717
 C         -2.4675056126        0.0561595641        0.1620950987
 Cl        -3.9218344828        0.0716468951       -0.8541878502
 Cl        -1.6659516228        1.6422752011        0.0449440025
 Cl        -1.3574224004       -1.1898624798       -0.4308537342
 H         -1.2046618959        0.4593971365        2.3925179122
 H         -3.5332308799        0.5831507192        1.9429641867
 H         -3.3859933008       -1.1750297911        1.6678270904
