  18
        -47.04033537
 O          0.6932716040        1.4259759754        0.9416354244
 C          1.5254763989        0.3182701597        1.1029455487
 C          2.5171291410        0.1721088270       -0.0514669184
 Cl         3.5230375503       -1.2643762072        0.1957050456
 Cl         1.6087356341       -0.0133905100       -1.5793927304
 Cl         3.5548924958        1.6053047959       -0.1811615396
 H          0.3144476826        1.4061852414        0.0472062076
 H          0.9469895539       -0.6138773719        1.1757281956
 H          2.0756471058        0.4708561596        2.0347926837
 O         -1.4947099643        0.2836219428        2.3051640965
 C         -2.7154973384        0.2417653734        1.6600624174
 C         -2.6216380538       -0.2576986797        0.2061689563
 Cl        -4.2446225384       -0.6444168361       -0.4024502401
 Cl        -1.9270160668        1.0014257062       -0.8511442834
 Cl        -1.5977778575       -1.7005665799        0.1084150772
 H         -0.8954965436        0.9366995056        1.8971806926
 H         -3.2239338626        1.2167052060        1.6443104157
 H         -3.3332463066       -0.4700105708        2.2167430600
