  18
        -47.04141417
 O          1.1376530704        0.2361492238        2.0142611220
 C          1.9491004494        0.8884126192        1.0889862029
 C          2.4739581270       -0.0632470522        0.0086519593
 Cl         3.5283330976        0.8227681349       -1.1060263849
 Cl         3.4192075518       -1.3641875281        0.7895635218
 Cl         1.1362190728       -0.7977671277       -0.8953447313
 H          1.6383263837       -0.4842808274        2.4244023036
 H          2.8127875239        1.3649423971        1.5723339636
 H          1.3316182232        1.6570652460        0.6175407344
 O         -1.2339972330       -1.2315734804        1.4654646779
 C         -2.4446989540       -0.5772625201        1.3398344445
 C         -2.5608768843        0.2132123736        0.0267169380
 Cl        -4.1910903913        0.9038257944       -0.1128800014
 Cl        -1.3867122939        1.5443146276        0.0097581391
 Cl        -2.2485770394       -0.8365679802       -1.3655098535
 H         -0.5072536374       -0.5879713024        1.5623155541
 H         -2.6349676477        0.1223298155        2.1669044982
 H         -3.2227406537       -1.3469781958        1.3387226954
