  18
        -47.03991765
 O          1.4797601456       -0.6628814837        1.9469977507
 C          2.7672261261       -0.5970215565        1.4485666188
 C          2.8701491841        0.2242711744        0.1529090465
 Cl         4.5772516627        0.4935133771       -0.2541320527
 Cl         2.1069375294       -0.6456795119       -1.1956324985
 Cl         2.0591176320        1.7887573080        0.3450358963
 H          0.8892435817       -1.1225289004        1.3250023717
 H          3.1966259007       -1.5896826473        1.2474459387
 H          3.3716182891       -0.0984211033        2.2127990515
 O         -0.6207740901       -1.3565807914        0.1582758068
 C         -1.1679121007       -0.0787006158        0.0558128447
 C         -2.6906626518       -0.1187430084       -0.0910277941
 Cl        -3.3254426412        1.5284349376       -0.2387843952
 Cl        -3.1127728644       -1.0351788062       -1.5656072119
 Cl        -3.4355971538       -0.9184529773        1.3051637238
 H         -0.8574456112       -1.8688602188       -0.6276083152
 H         -0.7568968849        0.4729330839       -0.8013795327
 H         -0.9107230278        0.4474783767        0.9790911519
