  18
        -47.03949302
 O          0.8480156406        1.4557596939        0.9483873258
 C          2.2120140560        1.3187932399        0.7482715806
 C          2.5577841052        0.0836489648       -0.0931724620
 Cl         2.0211489825       -1.3864687841        0.7619910090
 Cl         1.7526592272        0.1537001290       -1.6687574814
 Cl         4.3124350192       -0.0062871309       -0.3350851232
 H          0.5005168715        0.6734659690        1.4075810058
 H          2.7658284684        1.2441128982        1.6957259875
 H          2.5435562224        2.2112900498        0.2102002958
 O         -1.5117783458        0.5820709804        2.2564174346
 C         -2.6431935012        0.0048672736        1.6948854743
 C         -2.5590731194       -0.0733264601        0.1650213329
 Cl        -4.0545429211       -0.7748454616       -0.4810370179
 Cl        -2.3481620844        1.5667672359       -0.5045354796
 Cl        -1.1842344117       -1.0711210915       -0.3349117888
 H         -1.4130162929        1.4864511659        1.9232435464
 H         -3.5591981232        0.5542182139        1.9540921829
 H         -2.7105260608       -1.0101375090        2.0955986547
