  18
        -47.03987941
 O          1.3312192475       -0.5922682710        1.8280842965
 C          2.6491227123       -0.5724043961        1.4111909337
 C          2.8446739794        0.1544198386        0.0705935694
 Cl         4.5776204911        0.3613606032       -0.2524173537
 Cl         2.1348898825       -0.7895162065       -1.2571680570
 Cl         2.0649054009        1.7463156535        0.1109522088
 H          0.7794410066       -1.1022192504        1.2109574041
 H          3.0773394990       -1.5801497309        1.3070955600
 H          3.2096270794       -0.0264289848        2.1765346167
 O         -0.6673295961       -1.4378162080       -0.0221349645
 C         -1.1631148151       -0.1782307300       -0.3541331139
 C         -2.6596404951       -0.0560113589       -0.0584016924
 Cl        -3.2350693873        1.5552757147       -0.5155998423
 Cl        -3.5469438872       -1.2791033997       -1.0123143310
 Cl        -2.9825481583       -0.3372161695        1.6628520004
 H         -1.1708880847       -2.1138034968       -0.4967970057
 H         -1.0033239902        0.0545076086       -1.4162610622
 H         -0.6213740956        0.5469284353        0.2593756103
