  18
        -47.04062476
 O          1.4473864677        0.5638232412        1.8589818622
 C          2.1089088026        0.8258042335        0.6731557202
 C          2.5989566118       -0.4498200987       -0.0286569229
 Cl         3.5134192745       -0.0158173000       -1.4871791537
 Cl         3.6317079192       -1.4019428402        1.0511325497
 Cl         1.2143981094       -1.4486814056       -0.5116472391
 H          0.6174155894        0.0841795847        1.6864084309
 H          2.9854608890        1.4301343942        0.9259635933
 H          1.4872842475        1.3813990683       -0.0441558145
 O         -1.2263922389       -0.4496454950        1.6728084405
 C         -2.0902898243       -0.7918205181        0.6376427932
 C         -2.6015362997        0.4405551521       -0.1166630691
 Cl        -3.7139549384       -0.0554644482       -1.4041258586
 Cl        -3.4678179765        1.5109958028        1.0220398973
 Cl        -1.2522986644        1.3440742105       -0.8244015117
 H         -1.6867832401        0.1210928616        2.3045794996
 H         -2.9616728651       -1.3540451559        0.9999667221
 H         -1.5187299744       -1.4188243931       -0.0516473313
