%nprocshared=4
%mem=8000mb
%chk=19.chk
%nprocshared=4
%mem=8000mb
#T wB97XD/def2svpp opt=tight freq int(grid=ultrafine) scf=(verytight,qc) Volume=tight

Dimer

0 1
 O          1.0048097179       -0.8737738484        1.8162943235
 C          2.2648316847       -0.3397738352        1.5582994956
 C          2.4587772258       -0.0014859956        0.0760890564
 Cl         4.0978995348        0.6194380099       -0.1836731643
 Cl         2.2417133599       -1.4879603438       -0.8930237885
 Cl         1.2749240372        1.2062701848       -0.4606091774
 H          0.8588717978       -1.6414808283        1.2426955391
 H          3.0646916997       -1.0317858139        1.8559031935
 H          2.3442443042        0.5771459521        2.1477530284
 O         -1.1293640292        1.0079814298        1.8681290606
 C         -2.3359259523        0.4102156045        1.5608782577
 C         -2.4581642371        0.0287572919        0.0748681485
 Cl        -4.1025379815       -0.5623097939       -0.2509555517
 Cl        -2.1226752264        1.4278787793       -0.9580932847
 Cl        -1.3154742497       -1.2659187664       -0.3372759043
 H         -0.4057161380        0.3543975571        1.8335631017
 H         -3.1181024425        1.1450768269        1.7770210228
 H         -2.5245632054       -0.4961666496        2.1538893888


