  36
        -40.16146705
 C          3.7859120703       -1.1000779191       -2.0976406595
 C          3.8637429422       -0.2168470142       -0.8581528435
 C          2.5284028784       -0.0109977963       -0.1361279613
 C          1.8661463764       -1.3252793383        0.2558195776
 C          2.7220755904        0.8700937403        1.0925527811
 S          1.3479634793        0.8476997900       -1.2880246338
 H          3.5541360081       -2.1280697150       -1.8324059168
 H          4.7404590286       -1.0906607983       -2.6183594783
 H          3.0202392318       -0.7356004530       -2.7792462346
 H          4.2597262691        0.7623923274       -1.1434539195
 H          4.5651023493       -0.6569716176       -0.1440226649
 H          2.5610929240       -1.9295987706        0.8352731010
 H          1.5615691583       -1.8869845139       -0.6237022075
 H          0.9846236072       -1.1327403684        0.8631843597
 H          3.3628315814        0.3602991913        1.8099181848
 H          1.7682120861        1.0763612228        1.5736324822
 H          3.1909168351        1.8169287221        0.8280782058
 H          2.0257823770        1.9902134495       -1.3618787316
 C         -3.7116566422       -1.3926249340        1.9442022997
 C         -3.8493725961       -0.2823360463        0.9090192238
 C         -2.5611315685        0.0446032872        0.1484654081
 C         -1.9672439840       -1.1711626827       -0.5502321483
 C         -2.8198616010        1.1626062307       -0.8556187850
 S         -1.3321246534        0.6725476905        1.3881327333
 H         -3.5101619276       -2.3501909812        1.4708854316
 H         -4.6341980825       -1.4824691430        2.5131373087
 H         -2.9036297351       -1.1675866098        2.6367976601
 H         -4.1871076664        0.6280873648        1.4110530667
 H         -4.6136171834       -0.5610892976        0.1780558541
 H         -1.6431398806       -1.9162717904        0.1716158327
 H         -1.1074231819       -0.8768453528       -1.1492843216
 H         -2.7094351978       -1.6196490250       -1.2087234754
 H         -3.5684491096        0.8452790441       -1.5800366301
 H         -1.9071740675        1.4147845082       -1.3931653729
 H         -3.1832593485        2.0554106607       -0.3506778652
 H         -0.4269586569        1.0076107922        0.4692916607
