  36
        -40.16124556
 C          1.8206247486        2.3050397236        0.1277274312
 C          3.0292512220        1.4003270213        0.3354563847
 C          2.8570533161       -0.0364499958       -0.1661350903
 C          2.5017778265       -0.1020695207       -1.6450330746
 C          4.1225432723       -0.8385543857        0.1193164402
 S          1.4781425360       -0.7991050801        0.8206680277
 H          1.6014544017        2.4403186220       -0.9276557000
 H          2.0179483375        3.2820955919        0.5623458880
 H          0.9416649803        1.8895173392        0.6137571789
 H          3.2625714154        1.3630784480        1.4029435576
 H          3.8939755562        1.8304453898       -0.1769859470
 H          2.4657007973       -1.1359768559       -1.9849206645
 H          3.2592588983        0.4221557616       -2.2252340320
 H          1.5354405908        0.3539346562       -1.8432797890
 H          4.9656790012       -0.4018018785       -0.4133278908
 H          4.0108256798       -1.8716225260       -0.2062951033
 H          4.3476693821       -0.8354718930        1.1839829530
 H          1.5214237465       -1.9822565723        0.2123982269
 C         -2.9980062478       -2.3017258589       -0.2885262701
 C         -2.5447795431       -1.2901948189        0.7571260200
 C         -2.6128960569        0.1714610638        0.3034514626
 C         -4.0117689510        0.5825545799       -0.1370943984
 C         -2.1152162675        1.0840259745        1.4195253742
 S         -1.5076749207        0.4099227743       -1.1639737485
 H         -4.0659189970       -2.2230665241       -0.4750666768
 H         -2.7875230371       -3.3110756848        0.0574323136
 H         -2.4691075789       -2.1412252027       -1.2254631411
 H         -1.5126745679       -1.5113795001        1.0446189321
 H         -3.1635445462       -1.3925631348        1.6529821348
 H         -4.3180042245        0.0298610213       -1.0216535717
 H         -4.0306007989        1.6436521915       -0.3781398564
 H         -4.7260100447        0.3935020166        0.6623071788
 H         -2.7978228735        1.0424292822        2.2668702382
 H         -2.0564881144        2.1136594692        1.0724700619
 H         -1.1284041358        0.7732754126        1.7590464408
 H         -0.4070872320       -0.0040474153       -0.5341307482
