  36
        -40.16132003
 C          2.4623816408       -1.5787436446        1.0768289145
 C          2.5574594946       -0.9459402620       -0.3062398001
 C          2.8185816613        0.5635727868       -0.3031892287
 C          4.0941851452        0.9342836276        0.4419397051
 C          2.8646044856        1.0858081756       -1.7351899487
 S          1.4307693305        1.4272481281        0.5689239121
 H          3.4247082458       -1.5678159979        1.5818459048
 H          2.1380466484       -2.6133187753        0.9891782603
 H          1.7428969194       -1.0425727122        1.6915645768
 H          1.6254469504       -1.1300285771       -0.8477969399
 H          3.3640072078       -1.4244794792       -0.8686905730
 H          4.9428074150        0.4009490270        0.0173997934
 H          4.0134762335        0.6858336359        1.4971514055
 H          4.2779897883        2.0037521074        0.3597027760
 H          3.7152525172        0.6558712855       -2.2618820191
 H          2.9649172146        2.1691692127       -1.7421319126
 H          1.9556531185        0.8196681232       -2.2723814740
 H          0.4782935341        0.9398178481       -0.2264473287
 C         -4.5136543139       -0.8941349307       -0.9534187258
 C         -3.6979684449       -1.1159096098        0.3145796759
 C         -2.4290368044       -0.2633555326        0.4147285479
 C         -2.7137938541        1.2269840947        0.2815989403
 C         -1.7020500222       -0.5488542552        1.7234600025
 S         -1.2959650566       -0.7042209314       -0.9904660514
 H         -4.9534921962        0.0994667542       -0.9679864566
 H         -5.3189446313       -1.6229109244       -1.0070048468
 H         -3.8874154392       -1.0102772656       -1.8354563377
 H         -3.4133448146       -2.1705960639        0.3742822791
 H         -4.3187575685       -0.8950675081        1.1871846397
 H         -3.4742135065        1.5234223506        1.0012193261
 H         -3.0633783929        1.4701933004       -0.7187129358
 H         -1.8100135721        1.8008517034        0.4768553290
 H         -2.3229855889       -0.2380417162        2.5618429344
 H         -0.7656108151        0.0027079234        1.7700340359
 H         -1.4884747130       -1.6114322905        1.8308423900
 H         -1.0248809003       -1.9359826163       -0.5636677819
