  36
        -40.16145255
 C          3.8342600150       -1.0370809286       -2.1014017847
 C          3.8832233209       -0.1817763304       -0.8410463053
 C          2.5374723924       -0.0174506175       -0.1277262754
 C          1.8962538573       -1.3521055103        0.2288742159
 C          2.7034050625        0.8397806464        1.1217369146
 S          1.3511052694        0.8423558809       -1.2726289897
 H          3.6197192621       -2.0752712165       -1.8626405884
 H          4.7934070608       -0.9972456965       -2.6121458101
 H          3.0683750936       -0.6711904552       -2.7819894137
 H          4.2632737881        0.8111198855       -1.0995166587
 H          4.5858517432       -0.6252684896       -0.1302897090
 H          2.5961076427       -1.9556861440        0.8031355157
 H          1.6118673546       -1.9005912597       -0.6656753939
 H          1.0046572185       -1.1890763678        0.8301976515
 H          3.3473299643        0.3262011196        1.8335599412
 H          1.7418357150        1.0178963386        1.5986501108
 H          3.1568015846        1.8007065172        0.8824520078
 H          2.0010663349        2.0027354748       -1.3078051632
 C         -3.7842971678       -1.3292967513        1.9454045518
 C         -3.8739012698       -0.2441407845        0.8788097994
 C         -2.5631802182        0.0316034589        0.1366484589
 C         -1.9872870694       -1.2149904982       -0.5218172987
 C         -2.7737593655        1.1315678676       -0.8981504594
 S         -1.3416259011        0.6566192409        1.3850508799
 H         -3.5963078909       -2.3036491862        1.5017027344
 H         -4.7201784181       -1.3820173586        2.4969816557
 H         -2.9853638212       -1.1049638307        2.6487154164
 H         -4.1990228785        0.6872187715        1.3497975347
 H         -4.6300721826       -0.5237483141        0.1398087237
 H         -2.7284425752       -1.6616347168       -1.1827198165
 H         -1.6942107353       -1.9497524423        0.2235761261
 H         -1.1101593281       -0.9559482821       -1.1120506713
 H         -3.5174289818        0.8164720309       -1.6285778340
 H         -1.8452633462        1.3469216930       -1.4245666681
 H         -3.1223801440        2.0454549033       -0.4213051451
 H         -0.4198902017        0.9670078233        0.4738731778
