  36
        -40.16192471
 C          2.0909736468       -2.2195623606        0.7083426766
 C          2.0048470830       -1.3067339386       -0.5093136774
 C          2.5577366637        0.1045082039       -0.2930044123
 C          4.0131511705        0.1014389946        0.1550541186
 C          2.3841925980        0.9252632045       -1.5657961386
 S          1.5401445370        0.8913379624        1.0525345150
 H          3.1234788568       -2.4504892749        0.9574629529
 H          1.5745770774       -3.1544462955        0.5040296061
 H          1.6219367398       -1.7530703157        1.5722291429
 H          0.9605554087       -1.2188130636       -0.8156607408
 H          2.5539890216       -1.7590352563       -1.3392166556
 H          4.3987833050        1.1184619325        0.2080129183
 H          4.6178266335       -0.4580482328       -0.5566966226
 H          4.1178604914       -0.3535543598        1.1366189305
 H          2.9608613240        0.4747236068       -2.3718859515
 H          2.7359465028        1.9461389493       -1.4252550549
 H          1.3395196967        0.9589644707       -1.8682530249
 H          2.0570290545        2.1089580962        0.9151385610
 C         -1.9315164154       -2.1165645227       -0.6930528710
 C         -1.9422242786       -1.1961693390        0.5216647721
 C         -2.5803332315        0.1744104231        0.2743584725
 C         -4.0091376050        0.0681661166       -0.2425732077
 C         -2.5340152385        1.0077497041        1.5503263454
 S         -1.6139301953        1.0724190165       -1.0280251737
 H         -2.9351721907       -2.4526662466       -0.9402663175
 H         -1.3206449814       -2.9932843844       -0.4901446895
 H         -1.5186354678       -1.6001097695       -1.5573983555
 H         -0.9157710378       -1.0374785367        0.8621095196
 H         -2.4859579720       -1.6796178849        1.3379163474
 H         -4.0333471825       -0.3973249646       -1.2246661821
 H         -4.4502613928        1.0593568363       -0.3272758644
 H         -4.6112733127       -0.5244371596        0.4438834144
 H         -3.1613284321        0.5516672441        2.3147269124
 H         -2.8974882145        2.0155721697        1.3608529532
 H         -1.5164050783        1.0727757958        1.9326256814
 H         -0.5086822138        1.1804901002       -0.2883859322
