  36
        -40.16115767
 C          4.6095834330       -0.2029555688        0.8930397430
 C          3.6788042502       -1.0908058361        0.0751132214
 C          2.3333575186       -0.4646180874       -0.3076364928
 C          2.4824625914        0.8237118954       -1.1037693439
 C          1.5003056173       -1.4737962572       -1.0921580468
 S          1.3597687953       -0.1131692675        1.2381733234
 H          5.5206137534       -0.7494733668        1.1250580229
 H          4.1452383721        0.0868206343        1.8334470167
 H          4.8862514380        0.6942947671        0.3449254880
 H          3.4799149752       -2.0050703222        0.6399202455
 H          4.1843373900       -1.3777703922       -0.8510516271
 H          2.9925501828        1.5948720781       -0.5308614808
 H          1.5063762719        1.2055480504       -1.3964960041
 H          3.0587090311        0.6268930758       -2.0063017013
 H          2.0246643672       -1.7623302386       -2.0007959475
 H          0.5418589223       -1.0417268715       -1.3689854850
 H          1.3193570495       -2.3677023659       -0.4980831316
 H          1.9873109166        1.0135391292        1.5626365644
 C         -2.5331164540       -1.5392690024       -1.4191067612
 C         -2.4329242125       -1.0733319638        0.0286498829
 C         -2.7345298602        0.4139212680        0.2389220006
 C         -4.1029201224        0.8140310726       -0.2968963600
 C         -2.6155112337        0.7655937516        1.7177489842
 S         -1.4883529227        1.4252940764       -0.6879027466
 H         -2.1374236016       -2.5478922112       -1.5136507876
 H         -1.9605566567       -0.8820230480       -2.0705568019
 H         -3.5655235833       -1.5462759645       -1.7589553447
 H         -1.4252268600       -1.2735633549        0.4025602005
 H         -3.1298317628       -1.6492052602        0.6436795712
 H         -4.8757971466        0.1931473233        0.1526558074
 H         -4.1450984506        0.7020583172       -1.3774085395
 H         -4.3081979762        1.8553937252       -0.0565272330
 H         -2.7288547960        1.8376596268        1.8649803523
 H         -1.6459697187        0.4622407223        2.1099706983
 H         -3.3921685238        0.2545572226        2.2846654336
 H         -0.4531525346        1.0175168784        0.0496279071
