%chk=35.chk
%nprocshared=4
%mem=8000mb
#T wB97XD/def2svpp freq  int(grid=ultrafine) scf=(verytight,qc) symm=loose

Monomer

0 1
C        0.000000    0.000000    0.000000
Cl        1.025781    1.025781    1.025781
Cl       -1.025781   -1.025781    1.025781
Cl       -1.025781    1.025781   -1.025781
Cl        1.025781   -1.025781   -1.025781












