  42
        -48.12905191
 C          2.9916625513       -1.7920784199       -1.0661529222
 C          2.0699875939       -0.6387392437       -0.6654170108
 O          0.9796420639       -1.1461245197        0.0862239624
 C          2.7836961501        0.5290981936        0.0679836064
 C          3.1813116309        0.1308233829        1.4933784821
 C          4.0326938898        0.9503232414       -0.7108332756
 C          1.8231755695        1.7210492190        0.1421058777
 H          3.6933657212       -1.4833291693       -1.8334995281
 H          2.3835596499       -2.6024409266       -1.4635000374
 H          3.5461665741       -2.1689065709       -0.2091768393
 H          1.6066809652       -0.2351471748       -1.5736557977
 H          1.3374213782       -1.5575035249        0.8818248873
 H          3.7604100093        0.9325872941        1.9451277620
 H          3.7943165992       -0.7685599912        1.5031137542
 H          2.3004074830       -0.0277662032        2.1125433643
 H          4.4280824653        1.8747198698       -0.2957596594
 H          3.7926968281        1.1239068676       -1.7575500177
 H          4.8117712448        0.1950919719       -0.6506322406
 H          1.5586567615        2.0589442163       -0.8578610406
 H          2.2941990191        2.5480772872        0.6684181717
 H          0.9127911035        1.4551776504        0.6725816405
 C         -2.6942445397       -1.4736178777        1.4180563889
 C         -2.4484158961       -0.0163050927        1.0197926447
 O         -1.1194262343        0.3424547712        1.3179753394
 C         -2.8243982304        0.3063231001       -0.4539270860
 C         -2.1009467593       -0.6186352063       -1.4368587053
 C         -4.3364557028        0.1727741511       -0.6523229120
 C         -2.4196177506        1.7568851406       -0.7380597354
 H         -2.0540336525       -2.1370848803        0.8413333604
 H         -3.7317069139       -1.7553832251        1.2695383400
 H         -2.4508383065       -1.5957846610        2.4714383626
 H         -3.0566968083        0.6312716628        1.6645470254
 H         -0.5284138800       -0.2210684927        0.7898351643
 H         -2.2649078726       -0.2727755680       -2.4554363332
 H         -2.4770653954       -1.6361440567       -1.3642395613
 H         -1.0301878354       -0.6307305405       -1.2508622448
 H         -4.6612289721       -0.8592292027       -0.5480542530
 H         -4.6087040387        0.5105766588       -1.6501256435
 H         -4.8751852610        0.7795112518        0.0724124360
 H         -2.9441744302        2.4345450399       -0.0681429388
 H         -2.6628016314        2.0258997768       -1.7636784432
 H         -1.3521700077        1.8896504114       -0.5852908938
