  42
        -48.12914080
 C          1.8394881920       -1.1639631480        1.5450961678
 C          2.4347787296       -0.9520818142        0.1508351761
 O          1.4543774875       -1.1859119339       -0.8326297869
 C          3.1285578904        0.4268039841       -0.0351549052
 C          2.1695705847        1.5864723726        0.2498536051
 C          4.3427632754        0.5363862269        0.8905474927
 C          3.6087450859        0.5158350987       -1.4877339769
 H          2.6032713730       -1.1040930019        2.3138297382
 H          1.3842586601       -2.1514905586        1.5867406281
 H          1.0689655311       -0.4235734118        1.7459105040
 H          3.1908370822       -1.7279794247       -0.0275388749
 H          0.7310128165       -0.5496788668       -0.6946142288
 H          2.6404614649        2.5278768166       -0.0257725620
 H          1.9191032499        1.6356555903        1.3067965241
 H          1.2487253205        1.4889430859       -0.3202790387
 H          5.0072459137       -0.3147205295        0.7573305807
 H          4.0430148948        0.5810567652        1.9343407146
 H          4.8992945332        1.4430991434        0.6624633177
 H          4.3368209904       -0.2655562304       -1.6941358769
 H          4.0724735272        1.4810615061       -1.6785328109
 H          2.7722194709        0.3873358099       -2.1694568564
 C         -1.9346632855       -1.8085266016       -0.5156743611
 C         -1.8539582609       -0.3919371070        0.0506070507
 O         -0.9339849206        0.3820753702       -0.7046824526
 C         -3.2181073088        0.3364684261        0.1827561131
 C         -3.8154084328        0.6635411821       -1.1897844496
 C         -4.2040411590       -0.5263687033        0.9727144035
 C         -2.9755732468        1.6456374098        0.9420911459
 H         -2.4648391157       -2.4673935969        0.1639705662
 H         -0.9253505602       -2.1917432253       -0.6521577121
 H         -2.4363113180       -1.8180506840       -1.4811224233
 H         -1.4072329937       -0.4409757862        1.0506973178
 H         -1.2207860076        0.3628638738       -1.6252223432
 H         -4.7904548454        1.1275708768       -1.0608258961
 H         -3.9500950838       -0.2335425882       -1.7900144348
 H         -3.1847601518        1.3640615548       -1.7341355022
 H         -5.0864138978        0.0588292075        1.2220095913
 H         -3.7535771305       -0.8750939243        1.8993512827
 H         -4.5241149839       -1.3886961604        0.3941597586
 H         -2.6694061829        1.4404414315        1.9654850620
 H         -3.8815961698        2.2463135217        0.9671805962
 H         -2.1890301806        2.2205593313        0.4590004719
