  42
        -48.12905664
 C          2.7261965151       -1.9294355650       -0.4552104875
 C          2.4648467139       -0.4747421886       -0.8528291048
 O          1.1397906518       -0.3358541436       -1.3097513898
 C          2.8101671635        0.5549807454        0.2598228057
 C          2.0701841127        0.2461786685        1.5644378634
 C          4.3182904093        0.5604106445        0.5223249422
 C          2.3944941211        1.9439391722       -0.2368514780
 H          3.7623898855       -2.0827908298       -0.1714263514
 H          2.5023595356       -2.5714310373       -1.3046489744
 H          2.0793902013       -2.2183364924        0.3699224675
 H          3.0819865752       -0.2333608171       -1.7280254233
 H          0.5426486442       -0.5740047862       -0.5799431942
 H          2.2120536347        1.0627175906        2.2695974875
 H          2.4510180736       -0.6628178370        2.0236160286
 H          1.0035958265        0.1271948623        1.3929115525
 H          4.5689228320        1.3596085479        1.2168576312
 H          4.8694451159        0.7250658980       -0.4010817136
 H          4.6487555669       -0.3784460868        0.9590238806
 H          2.9285316703        2.1948362206       -1.1506449637
 H          2.6176721131        2.6990998003        0.5137038891
 H          1.3294978632        1.9669989432       -0.4506704645
 C         -2.9727732964       -1.0859664195        1.7977687158
 C         -2.0646072280       -0.2697659561        0.8761936802
 O         -0.9596431977       -1.0647155636        0.4782848570
 C         -2.7884837499        0.3645106603       -0.3422889809
 C         -3.1673061970       -0.6980268576       -1.3795833418
 C         -4.0504326387        1.0963404865        0.1222843174
 C         -1.8449345907        1.3773749554       -1.0001062291
 H         -3.5152623462       -1.8481060974        1.2421513984
 H         -3.6846740421       -0.4478783401        2.3102198717
 H         -2.3561329216       -1.5812445497        2.5453025006
 H         -1.6161463952        0.5409295398        1.4628504353
 H         -1.3033704291       -1.8248836016       -0.0057122730
 H         -3.7532549231       -0.2381301530       -2.1716619562
 H         -3.7676289971       -1.4925202456       -0.9401300043
 H         -2.2786202343       -1.1296681867       -1.8361315384
 H         -3.8223262683        1.7725629318        0.9432692062
 H         -4.8177035767        0.3983101878        0.4462860177
 H         -4.4556340276        1.6839326882       -0.6984699047
 H         -1.5949042224        2.1734123406       -0.3016051075
 H         -2.3230636243        1.8235015630       -1.8691479681
 H         -0.9255781210        0.8986675510       -1.3264386985
