  42
        -48.12782475
 C          1.7477525797       -1.9612586099        0.2700044291
 C          2.1377996814       -0.8209203964       -0.6644867730
 O          0.9186110193       -0.3082327869       -1.1797908559
 C          3.0172859204        0.2780253808       -0.0095433105
 C          2.3889280596        0.8249000080        1.2739576241
 C          4.3989764540       -0.3051746272        0.3007452115
 C          3.1916438346        1.4364387235       -1.0035563709
 H          2.6257006515       -2.4777387288        0.6426739950
 H          1.1337402483       -2.6689698727       -0.2819669282
 H          1.1671736394       -1.5812273819        1.1043525454
 H          2.7158976211       -1.2442785996       -1.5045796541
 H          1.1175751099        0.4273871433       -1.7689601854
 H          2.3971100171        0.0765251187        2.0618381748
 H          1.3642933601        1.1443262903        1.1007065518
 H          2.9595557195        1.6834163003        1.6215096381
 H          5.0435244389        0.4691872314        0.7102319838
 H          4.8654259842       -0.6966939330       -0.6011965541
 H          4.3338086194       -1.1067549824        1.0310859181
 H          3.4933542480        1.0697415576       -1.9845033903
 H          3.9644160152        2.1134610013       -0.6472925987
 H          2.2738460409        2.0139983849       -1.1002895849
 C         -1.7670497671       -0.5220110421        1.9483699944
 C         -2.1085035766        0.5416412208        0.9013625486
 O         -0.9290802663        1.1330731512        0.4099092434
 C         -3.0248689794        0.0272465244       -0.2437749528
 C         -2.4065539936       -1.1706089794       -0.9711199778
 C         -4.3926226017       -0.3726226867        0.3154782211
 C         -3.2185655927        1.1751416276       -1.2404854001
 H         -1.2364516471       -1.3531552731        1.4908013318
 H         -2.6617116780       -0.8945288687        2.4370274659
 H         -1.1221550529       -0.0760807294        2.7030281276
 H         -2.6360251783        1.3641387834        1.4021612602
 H         -0.4137866160        0.4517707097       -0.0575549778
 H         -1.3949418640       -0.9529742876       -1.3055552305
 H         -3.0058291740       -1.4165903205       -1.8454023655
 H         -2.3805991012       -2.0469892260       -0.3279133260
 H         -4.3190180612       -1.2499070527        0.9528658469
 H         -5.0707866220       -0.6080268579       -0.5021870636
 H         -4.8252284313        0.4405585633        0.8944970385
 H         -2.2573716412        1.5115744323       -1.6199994667
 H         -3.7057507034        2.0187445472       -0.7564435487
 H         -3.8332160800        0.8537398721       -2.0783402185
