  42
        -48.12900043
 C          2.7435372460       -1.9231175250       -0.5441284524
 C          2.4600386926       -0.4564559755       -0.8788978283
 O          1.1288411481       -0.3157746340       -1.3164170255
 C          2.8068180161        0.5298683074        0.2719227910
 C          2.1205224128        0.1341583211        1.5825653121
 C          4.3219529886        0.5722165762        0.4869560216
 C          2.3318457834        1.9270665013       -0.1414853500
 H          3.7827261961       -2.0732983571       -0.2695046979
 H          2.5260895783       -2.5317151527       -1.4193467426
 H          2.1037876652       -2.2560893125        0.2697540652
 H          3.0642585723       -0.1723965433       -1.7502590087
 H          0.5406319770       -0.5588418149       -0.5810045867
 H          2.2526931531        0.9239238626        2.3193976817
 H          2.5512729588       -0.7778512756        1.9886185672
 H          1.0543544114       -0.0199325763        1.4379423500
 H          4.5693211409        1.3341625491        1.2232506848
 H          4.8360121728        0.8141189881       -0.4407975650
 H          4.6980519953       -0.3802654472        0.8513036186
 H          2.8152099992        2.2332242379       -1.0665101018
 H          2.5705865273        2.6538132493        0.6319978519
 H          1.2576976558        1.9301066738       -0.3046728586
 C         -2.9220224816       -0.9537931543        1.8789104839
 C         -2.0409280535       -0.2014996251        0.8798357843
 O         -0.9465429011       -1.0228972989        0.5064086592
 C         -2.7990016600        0.3487382373       -0.3586015357
 C         -3.1844868926       -0.7807097877       -1.3202024495
 C         -4.0615710569        1.0913445046        0.0869397782
 C         -1.8843338382        1.3319396973       -1.0972412525
 H         -3.6190973057       -0.2823068352        2.3685165721
 H         -2.2840260638       -1.3999019387        2.6394347908
 H         -3.4800594293       -1.7499019133        1.3902763651
 H         -1.5769431205        0.6462884547        1.3977424601
 H         -1.3023385361       -1.8097769635        0.0769449043
 H         -3.8027023957       -0.3804298196       -2.1200533364
 H         -3.7547705844       -1.5595813635       -0.8171159103
 H         -2.3000255614       -1.2207469366       -1.7768904382
 H         -4.8121546318        0.4049443598        0.4695911139
 H         -4.4915433950        1.6216058056       -0.7598610830
 H         -3.8264247319        1.8202145995        0.8594344678
 H         -0.9579790310        0.8517940104       -1.4008698258
 H         -1.6440780189        2.1797857407       -0.4588894213
 H         -2.3817552232        1.7067245939       -1.9888536530
