  42
        -48.12776941
 C          1.7999173076       -1.9090577846        0.3127430336
 C          2.1425479278       -0.7772120219       -0.6501305535
 O          0.8987803152       -0.2873676611       -1.1283520059
 C          3.0300471885        0.3401834484       -0.0386388611
 C          2.4629960904        0.8608795917        1.2837827702
 C          4.4414684117       -0.2102814740        0.1865694213
 C          3.1206380140        1.5097159775       -1.0310132947
 H          2.6978121781       -2.3923046914        0.6825238559
 H          1.1989518225       -2.6462250912       -0.2145403632
 H          1.2210376381       -1.5271231331        1.1474991357
 H          2.6958581902       -1.2026072771       -1.5057867761
 H          1.0657589958        0.4596349917       -1.7130359408
 H          3.0157748927        1.7447334527        1.5947176651
 H          2.5570229307        0.1142607540        2.0676010669
 H          1.4151100612        1.1314453562        1.1808906966
 H          5.0836448696        0.5713156234        0.5858087578
 H          4.8730016691       -0.5634063693       -0.7480421686
 H          4.4356745137       -1.0332953674        0.8956179317
 H          3.3675542316        1.1571639239       -2.0323995608
 H          3.9020709047        2.1977086823       -0.7171874350
 H          2.1886156974        2.0715055959       -1.0645476170
 C         -1.9103771842       -1.0329493117        1.7716535550
 C         -2.1395864365        0.2711400117        1.0031952551
 O         -0.9059542406        0.8859848657        0.7167574893
 C         -3.0201551882        0.1056946787       -0.2672590401
 C         -2.4551710038       -0.9575000989       -1.2140332570
 C         -4.4480870748       -0.2785477694        0.1287926306
 C         -3.0600923167        1.4557496005       -0.9914367781
 H         -2.8497297103       -1.4708134447        2.0940604863
 H         -1.3093392981       -0.8196166882        2.6533582607
 H         -1.3728770771       -1.7494505779        1.1556271588
 H         -2.6491318944        0.9818022366        1.6671817225
 H         -0.3978519945        0.3004454858        0.1271751996
 H         -3.0012484888       -0.9379857970       -2.1550469348
 H         -2.5596149245       -1.9525889500       -0.7884327097
 H         -1.4042481750       -0.7789227466       -1.4286140618
 H         -5.0860762307       -0.2856300285       -0.7525975328
 H         -4.8564474172        0.4360619712        0.8402463211
 H         -4.4829360683       -1.2687344180        0.5755896069
 H         -3.4922765534        2.2179880873       -0.3469232246
 H         -3.6595299758        1.3857079443       -1.8963823678
 H         -2.0554317938        1.7709750810       -1.2603188458
