  42
        -48.12817144
 C          2.4633864257        0.0893179349        2.4275014773
 C          1.9138896783       -0.0826942443        1.0117592514
 O          0.8384257875        0.8198772769        0.8046600414
 C          2.9754936987        0.0266368824       -0.1151549839
 C          3.7135120659        1.3688493704       -0.0784969539
 C          3.9890294760       -1.1117309382        0.0194592227
 C          2.2546988117       -0.1091698020       -1.4612006490
 H          3.2083585026       -0.6667346048        2.6512939013
 H          1.6451136771       -0.0141040788        3.1370846880
 H          2.9052392785        1.0749427563        2.5596010415
 H          1.4509513866       -1.0729296877        0.9334954393
 H          1.1769516608        1.7165368226        0.9086670541
 H          4.3977085389        1.4301092775       -0.9217418289
 H          4.2965975972        1.4769234089        0.8329181062
 H          3.0207187824        2.2057831744       -0.1551945874
 H          4.6579208688       -1.1137315123       -0.8381778742
 H          3.4809124794       -2.0722322526        0.0583118835
 H          4.5940397558       -1.0011052619        0.9156043156
 H          1.6868656915       -1.0353090663       -1.4978999728
 H          2.9744876470       -0.1066183933       -2.2764461716
 H          1.5632819339        0.7160585201       -1.6116527769
 C         -1.7735288584        0.6383737055       -2.0845025607
 C         -2.1066667018       -0.5107139801       -1.1303949533
 O         -0.9204374554       -1.0689821731       -0.6171171512
 C         -3.1035638996       -0.1273184970        0.0000692948
 C         -4.4557075481        0.2707461898       -0.5966050011
 C         -3.2991623732       -1.3626336951        0.8854283892
 C         -2.5685827453        1.0225669116        0.8579429966
 H         -2.6649070498        1.0194290355       -2.5724923121
 H         -1.0904396658        0.2726670449       -2.8483519050
 H         -1.2834967457        1.4473507582       -1.5476921502
 H         -2.5646206644       -1.3235772390       -1.7091289646
 H         -0.4294214729       -0.3642875562       -0.1682022768
 H         -5.1873352686        0.3955295376        0.1990836400
 H         -4.8182020609       -0.4976293584       -1.2761922932
 H         -4.3886014509        1.2097060437       -1.1400650465
 H         -3.9549465868       -1.1337719787        1.7225468410
 H         -2.3414048631       -1.7014382334        1.2713378455
 H         -3.7401037882       -2.1745090886        0.3112525919
 H         -1.5751123146        0.7972143423        1.2379101687
 H         -3.2289432687        1.1849529356        1.7073778317
 H         -2.5231034791        1.9476377295        0.2880655043
