  42
        -48.12806725
 C          2.3418409028        0.8150023888        2.1230830571
 C          2.2645861559       -0.3552251771        1.1402950168
 O          0.9272830289       -0.7714287730        0.9946023403
 C          2.9424280767       -0.0749287580       -0.2314207392
 C          2.3736663864        1.1807103584       -0.8979091267
 C          4.4534972457        0.0876489880       -0.0486761681
 C          2.6848893003       -1.2833768298       -1.1379060396
 H          3.3700415868        1.1041369649        2.3159451057
 H          1.8848876057        0.5141252649        3.0634526182
 H          1.7931522620        1.6710702618        1.7372324703
 H          2.7721473059       -1.2210544034        1.5853859343
 H          0.4086714303       -0.0187760569        0.6727172484
 H          2.7644116369        1.2685237895       -1.9097841186
 H          2.6581386837        2.0762553841       -0.3507197208
 H          1.2889374836        1.1364185384       -0.9547471651
 H          4.9365277275        0.1662129556       -1.0205224339
 H          4.8731267188       -0.7699607753        0.4728834266
 H          4.6904165554        0.9852728012        0.5166073765
 H          3.1104094581       -2.1834936129       -0.6999023979
 H          3.1326674869       -1.1283681473       -2.1170625199
 H          1.6167505329       -1.4400989026       -1.2622185538
 C         -2.1523098095        0.4917636637       -2.2507817631
 C         -1.7669398110        0.1000448640       -0.8243882862
 O         -0.9655442307        1.1214164794       -0.2501470831
 C         -2.9607594046       -0.2736936457        0.0932606566
 C         -3.9924249116        0.8557273176        0.1799862718
 C         -3.6396804314       -1.5388465012       -0.4358329647
 C         -2.4109688654       -0.5581565196        1.4957147729
 H         -2.6756735734       -0.3170840102       -2.7493915870
 H         -1.2469129531        0.7128966131       -2.8123344294
 H         -2.7807751780        1.3800088315       -2.2566712479
 H         -1.1023898444       -0.7701783098       -0.8671349533
 H         -1.4963745267        1.9244577363       -0.2002751255
 H         -4.4646191325        1.0367653408       -0.7826398915
 H         -3.5400742076        1.7825732769        0.5303635818
 H         -4.7713240618        0.5821983476        0.8880714796
 H         -4.4012091518       -1.8701143479        0.2664337904
 H         -2.9137982790       -2.3395815594       -0.5546456198
 H         -4.1220005513       -1.3607400800       -1.3934882028
 H         -1.6401809533       -1.3233563693        1.4558153755
 H         -3.2092854525       -0.8975083777        2.1514609556
 H         -1.9707492879        0.3376482060        1.9265294884
