  42
        -48.12768414
 C          2.0215712394       -1.9761184080        0.4505779487
 C          2.1637435376       -0.8439325888       -0.5697346244
 O          0.8934915032       -0.4400806471       -1.0224404187
 C          3.0130089510        0.3554526966       -0.0617643901
 C          2.4860420338        0.8972731542        1.2703508574
 C          4.4740436275       -0.0688783731        0.1078437780
 C          2.9459542000        1.4623314178       -1.1195870578
 H          2.9910777550       -2.3582262355        0.7540590323
 H          1.4573620786       -2.7891698294       -0.0017373583
 H          1.4802882687       -1.6311804186        1.3279814610
 H          2.6578891091       -1.2408472014       -1.4662809882
 H          0.3901881099       -0.0936420954       -0.2640417121
 H          2.9902057970        1.8306164758        1.5129033270
 H          2.6766886230        0.1949736953        2.0781821640
 H          1.4171630223        1.0910094455        1.2232437612
 H          5.0820295412        0.7960834425        0.3650202963
 H          4.8608971875       -0.4961388429       -0.8148476245
 H          4.5844670776       -0.8038074661        0.9009549370
 H          3.3441874532        1.1047010901       -2.0665026967
 H          3.5249971741        2.3273581096       -0.8039045929
 H          1.9163212653        1.7698712781       -1.2815223452
 C         -1.7832771144       -1.2054363783        1.5165140005
 C         -2.1412922688        0.1792536880        0.9874620416
 O         -0.9043747755        0.8417546405        0.7695118232
 C         -3.0438036370        0.1699003374       -0.2755060906
 C         -2.4796099045       -0.7366574519       -1.3715934093
 C         -4.4466089325       -0.3047368602        0.1152144954
 C         -3.1555720692        1.6006441767       -0.8248949301
 H         -2.6747711958       -1.7692787065        1.7690661227
 H         -1.1779277472       -1.0916008683        2.4127009226
 H         -1.2042841282       -1.7491777815        0.7769773147
 H         -2.6882786795        0.7247439271        1.7765716163
 H         -1.0820359372        1.7051342605        0.3813387683
 H         -3.0320400555       -0.5804572971       -2.2956314662
 H         -2.5757762513       -1.7833323698       -1.0965319396
 H         -1.4305132895       -0.5213129945       -1.5577455178
 H         -5.0987597273       -0.2854638668       -0.7548682261
 H         -4.8754214167        0.3414939614        0.8787295425
 H         -4.4272457078       -1.3218341757        0.4962439223
 H         -2.2335968317        1.9094232522       -1.3149592276
 H         -3.3983915646        2.3080818963       -0.0320504170
 H         -3.9478485364        1.6475107516       -1.5682556828
