  42
        -48.12907184
 C          1.9376900808       -1.5435056263        1.2989197858
 C          2.4918074587       -1.0068924979       -0.0246574916
 O          1.5427357596       -1.1789600929       -1.0505714731
 C          3.0125536490        0.4554522531        0.0570663612
 C          1.9343410411        1.4169436128        0.5657227861
 C          4.2303027011        0.5285534224        0.9822275667
 C          3.4405323450        0.8819597836       -1.3512312624
 H          2.6870985400       -1.5084327968        2.0831092998
 H          1.6341275209       -2.5789977274        1.1589697006
 H          1.0663716985       -0.9722121233        1.6093535224
 H          3.3358382187       -1.6404618188       -0.3275014123
 H          0.7802944790       -0.6042526661       -0.8644394860
 H          2.2964984658        2.4407846143        0.4981322638
 H          1.6925701614        1.2173618041        1.6070652067
 H          1.0253987727        1.3425054114       -0.0262377813
 H          4.6670724334        1.5241307245        0.9384633436
 H          4.9884996109       -0.1904417834        0.6793227614
 H          3.9571489074        0.3281318353        2.0150335509
 H          4.2388272561        0.2390433544       -1.7154001758
 H          3.7974200846        1.9094525896       -1.3458841209
 H          2.6035403839        0.8060244839       -2.0402217330
 C         -1.8742963733       -1.8286143542       -0.1149682698
 C         -1.7867460672       -0.3181432133        0.0977691718
 O         -0.9306212430        0.2608755474       -0.8740778637
 C         -3.1544019370        0.4138521598        0.1452084000
 C         -3.8568844309        0.3833728345       -1.2159757841
 C         -4.0595691263       -0.2276550924        1.1986153233
 C         -2.8881313455        1.8727820737        0.5324530610
 H         -2.3386381560       -2.3139370350        0.7372096285
 H         -0.8691852359       -2.2275707106       -0.2349749426
 H         -2.4424880540       -2.0669156800       -1.0114749160
 H         -1.2786972512       -0.1266906959        1.0508849039
 H         -1.2736403637        0.0331254795       -1.7460511329
 H         -4.8257531572        0.8707666837       -1.1358128546
 H         -4.0242458635       -0.6361123115       -1.5560553178
 H         -3.2785582776        0.9179106497       -1.9673630911
 H         -4.9383946792        0.3937786414        1.3554608760
 H         -3.5370217864       -0.3241945922        2.1477906903
 H         -4.3948594747       -1.2120372371        0.8833421457
 H         -2.4953983782        1.9324398863        1.5450219990
 H         -3.8056233419        2.4541588994        0.4833113047
 H         -2.1589060788        2.3145276725       -0.1424589602
