%nprocshared=4
%mem=8000mb
%chk=17.chk
%nprocshared=4
%mem=8000mb
#T wB97XD/def2svpp opt=tight freq int(grid=ultrafine) scf=(verytight,qc) Volume=tight

Dimer

0 1
 C          1.8669162092       -1.2471100455        1.5109463505
 C          2.4491815089       -0.9685429097        0.1226061123
 O          1.4719486431       -1.1988966176       -0.8647631465
 C          3.1001913273        0.4364872318       -0.0159114239
 C          2.1172956403        1.5548019448        0.3436385730
 C          4.3325387636        0.5376229945        0.8866849159
 C          3.5444907709        0.6059937111       -1.4727336121
 H          2.6290437959       -1.1761314486        2.2803761254
 H          1.4552358442       -2.2542625999        1.5244983327
 H          1.0651931520       -0.5474883158        1.7342930781
 H          3.2274000562       -1.7145617812       -0.0852350442
 H          0.7417579874       -0.5720703233       -0.7203394046
 H          2.5538152800        2.5201005306        0.0954360744
 H          1.8960717525        1.5526820312        1.4082750432
 H          1.1840066164        1.4548355613       -0.2055107048
 H          4.8528762667        1.4740911123        0.6965246186
 H          5.0214663378       -0.2815265995        0.6917121778
 H          4.0575222877        0.5149070900        1.9379964535
 H          4.2758319372       -0.1548857573       -1.7362852729
 H          3.9931115212        1.5854134296       -1.6231421411
 H          2.6939966102        0.5035760472       -2.1414375330
 C         -1.9300514702       -1.8220177245       -0.4459577874
 C         -1.8408889803       -0.3823402274        0.0571088300
 O         -0.9268431205        0.3554326589       -0.7401921736
 C         -3.2018712430        0.3547826569        0.1712639826
 C         -3.8202655388        0.6107795741       -1.2069558727
 C         -4.1759821868       -0.4635327543        1.0209880171
 C         -2.9457937231        1.7014793160        0.8570012356
 H         -2.4406920900       -1.8722622655       -1.4053595501
 H         -2.4551114053       -2.4493986867        0.2666849330
 H         -0.9229609607       -2.2133822314       -0.5755320655
 H         -1.3844474330       -0.3884934108        1.0541069162
 H         -1.2211897951        0.2961822923       -1.6566075843
 H         -3.9692502063       -0.3165413829       -1.7555541151
 H         -3.1954125339        1.2772437511       -1.7987183695
 H         -4.7908392000        1.0865772034       -1.0873146979
 H         -5.0545246064        0.1349555074        1.2515722887
 H         -3.7117734809       -0.7623881310        1.9582510016
 H         -4.5046232093       -1.3554873717        0.4944648415
 H         -3.8510727649        2.3036813271        0.8662029308
 H         -2.1675055129        2.2496246246        0.3313324093
 H         -2.6219857806        1.5496666122        1.8842530269


