  38
        -64.22091223
 O          1.6635403149        0.6107364240       -1.6012315636
 C          2.8351816644        0.4964587702       -0.8280544480
 C          2.6915539541       -0.4918764932        0.3547499067
 C          2.3411774199       -1.8968633958       -0.1929480441
 O          1.1195461179       -1.9332725658       -0.8828248424
 C          3.9908490413       -0.5459310825        1.1534493542
 Br         5.5215020509       -1.1506668031        0.1113051180
 C          1.5626031960       -0.0745154336        1.2979800418
 Br         1.8056866749        1.7097007833        2.0654152279
 H          1.0683435517        1.2614387887       -1.2080429413
 H          3.1566231668        1.4746393161       -0.4540139567
 H          3.6058754555        0.1221812273       -1.5088306840
 H          2.2522637175       -2.6122576286        0.6309144631
 H          3.1514952231       -2.2303718682       -0.8541033706
 H          1.1452491057       -1.2070266026       -1.5343448517
 H          3.9051544162       -1.2408195536        1.9893674025
 H          4.2589556011        0.4425295166        1.5268373618
 H          1.4891280102       -0.7607229081        2.1415945917
 H          0.6085475237       -0.0537960545        0.7741467856
 O         -3.4845387619       -1.4886483025        2.0647889000
 C         -4.1595296522       -1.0834197985        0.9121470975
 C         -3.2777127037       -0.2434892479       -0.0457528812
 C         -2.1642683854       -1.1297597692       -0.6359370932
 O         -1.2838200889       -1.5315504754        0.3879047447
 C         -4.1198348433        0.3588108994       -1.1647464557
 Br        -4.9970887578       -0.9825616494       -2.2716828120
 C         -2.6856469018        0.8888333468        0.7916072022
 Br        -1.4036553383        1.9746253510       -0.1776364662
 H         -2.6601406644       -1.9191911272        1.7898444038
 H         -5.0112965147       -0.4858564724        1.2535579505
 H         -4.5478586569       -1.9518674812        0.3602557261
 H         -1.6246702853       -0.5688825668       -1.4120370559
 H         -2.6181153744       -2.0090688795       -1.1135924909
 H         -0.4877596757       -1.9161223796       -0.0252473621
 H         -3.5059933852        0.9492048165       -1.8467906441
 H         -4.9190101937        0.9808038583       -0.7599814256
 H         -2.1560708118        0.4764393308        1.6494318099
 H         -3.4636279789        1.5694229641        1.1365306991
