  38
        -64.22119658
 O          1.8380574635       -1.0567118385       -2.0891079955
 C          2.9490282273       -0.6349114996       -1.3370063274
 C          2.6330460933       -0.3777504754        0.1545312430
 C          2.0695022361       -1.6699396018        0.7950346034
 O          0.8583788182       -2.0834480359        0.2276807064
 C          3.8931920249        0.0716760699        0.8868478956
 Br         5.3242462722       -1.2482720819        0.8581138674
 C          1.5675142040        0.7052478930        0.3189866216
 Br         2.0569161603        2.4120754452       -0.4972737279
 H          1.2098901579       -0.3264796436       -2.1790129216
 H          3.3966518214        0.2664612272       -1.7762422673
 H          3.6766809296       -1.4479287792       -1.4154987921
 H          1.8700702789       -1.5027554228        1.8587676397
 H          2.8216309352       -2.4661398485        0.7045447129
 H          0.9957095770       -2.1219299310       -0.7359538598
 H          3.6835348952        0.2616020947        1.9399603034
 H          4.3103198674        0.9693467046        0.4296123007
 H          1.3813710594        0.9156343708        1.3717533827
 H          0.6374306435        0.3993929332       -0.1582173089
 O         -2.2896474542       -2.4942773471       -1.7193446982
 C         -3.4216515422       -1.8026695039       -1.2351365418
 C         -2.9705572575       -0.6145593602       -0.3603552289
 C         -2.1287899268        0.3673123014       -1.2031083274
 O         -0.8876551171       -0.1554631045       -1.5908647547
 C         -4.1951245613        0.0960934428        0.2111515596
 Br        -5.4039237191        0.7779436803       -1.1561081209
 C         -2.1482657199       -1.1914409084        0.7933722507
 Br        -1.5544400538        0.1597861470        2.0549938756
 H         -2.5769574161       -3.2454830890       -2.2472936900
 H         -4.0537282788       -2.4738474813       -0.6356610941
 H         -4.0205498331       -1.4239788848       -2.0741802532
 H         -1.9143927802        1.2699801404       -0.6213247546
 H         -2.7095483938        0.6638040423       -2.0882421358
 H         -1.0429159606       -1.0451255770       -1.9456709764
 H         -3.9025410772        0.9620799425        0.8046386077
 H         -4.7900897013       -0.5817376313        0.8247541791
 H         -1.2417510975       -1.6736177733        0.4251617930
 H         -2.7364552162       -1.9038083186        1.3715296492
