  38
        -64.22091074
 O          1.4864465111       -0.4729411995       -1.5965853495
 C          2.3988542415       -0.0055189867       -0.6400743179
 C          3.0108629496       -1.1120870520        0.2456574157
 C          3.6961433775       -2.1782819973       -0.6482382592
 O          2.7943115774       -2.8981929766       -1.4337610546
 C          4.0175894279       -0.5025781722        1.2173593668
 Br         5.5303193188        0.3530172856        0.3360702461
 C          1.9370548843       -1.8391735620        1.0542892647
 Br         0.8954363206       -0.6468358388        2.1856133564
 H          0.7271549322       -0.9001356018       -1.1543316015
 H          1.9335884333        0.7565770158        0.0037467525
 H          3.1954395438        0.4802058960       -1.2108457324
 H          4.2059724276       -2.9146345873       -0.0182868923
 H          4.4493169746       -1.6796410389       -1.2737249672
 H          2.3380449875       -2.2672272982       -2.0134256791
 H          4.4451701300       -1.2679120810        1.8662744301
 H          3.5549702455        0.2753082360        1.8264925536
 H          2.3855276454       -2.5728737782        1.7238731754
 H          1.2256285015       -2.3424601480        0.3990813840
 O         -0.8943084413       -1.6774583984       -0.8170300216
 C         -2.0089182353       -1.2196000110       -0.0919434070
 C         -2.5576728815        0.1320075179       -0.6071447974
 C         -3.0827034390       -0.0472062934       -2.0509532477
 O         -2.0873151833       -0.4715059155       -2.9522733351
 C         -3.6772710661        0.6207854186        0.3071848393
 Br        -5.1820134093       -0.6106861250        0.4130981187
 C         -1.4116636977        1.1445123098       -0.5507390978
 Br        -1.9133495885        2.9201818594       -1.2083436218
 H         -1.1646845206       -1.7308583409       -1.7510495463
 H         -1.6841190453       -1.1166200184        0.9469579398
 H         -2.8111940568       -1.9664842342       -0.1316419810
 H         -3.5535269116        0.8822806181       -2.3915513948
 H         -3.8420634409       -0.8344985106       -2.0583041102
 H         -1.5653097367        0.2848094304       -3.2428608123
 H         -4.0910130825        1.5635604693       -0.0510553641
 H         -3.3161291701        0.7430138678        1.3287491991
 H         -0.5778296556        0.8244539695       -1.1746460499
 H         -1.0666887607        1.2802715504        0.4746179477
