  38
        -64.22104481
 O          0.9703317620       -1.2955418343       -0.5087759326
 C          2.2685564527       -0.8154375412       -0.7407058774
 C          2.8936675584       -0.1425234540        0.5003176706
 C          3.0814178383       -1.1971241006        1.6230554539
 O          1.9059399035       -1.8887005423        1.9628493290
 C          4.2422105087        0.4790976641        0.1449635162
 Br         5.5537700316       -0.8115021801       -0.4950542914
 C          1.9793431574        0.9580495950        1.0404541874
 Br         1.6485528982        2.3960448589       -0.2394127288
 H          1.0172056675       -1.8944940921        0.2572133363
 H          2.1886148064       -0.0924273318       -1.5584421292
 H          2.9217541383       -1.6348421954       -1.0678773834
 H          3.5254361824       -0.7168645893        2.5046097008
 H          3.7725426683       -1.9674785953        1.2689311726
 H          1.3343626621       -1.3460076362        2.5186305773
 H          4.6924147135        0.9557762989        1.0165501668
 H          4.1340655564        1.2110809445       -0.6553568350
 H          2.4137572723        1.4342730435        1.9195999254
 H          0.9952603268        0.5592558484        1.2838453880
 O         -3.0502489535       -1.9122900806       -2.7228091211
 C         -3.7400269330       -0.8443353304       -2.1499762431
 C         -2.9446387654       -0.1362057463       -1.0229771114
 C         -1.7019944845        0.5569983601       -1.6455786329
 O         -0.8748157143       -0.3177632170       -2.3613575525
 C         -3.7874108520        0.9628977623       -0.3873137100
 Br        -5.4220756213        0.3056444382        0.4605612878
 C         -2.5482580340       -1.2123507650       -0.0212741486
 Br        -1.5315209250       -0.5306347959        1.4763541888
 H         -2.1948016197       -1.5722088072       -3.0377174632
 H         -4.6665354192       -1.2656661074       -1.7474304278
 H         -4.0043582132       -0.0908585167       -2.9084634955
 H         -1.1415731268        1.0817865840       -0.8629180175
 H         -2.0499600874        1.3078613055       -2.3630496090
 H         -0.2444215707       -0.7413395279       -1.7528185006
 H         -4.1080964127        1.6845863230       -1.1378572621
 H         -3.2344364537        1.4839694275        0.3957088516
 H         -1.9267072271       -1.9693277196       -0.4982113694
 H         -3.4302219312       -1.6872031526        0.4091202970
