  38
        -64.22070854
 O          3.4071596515        0.2249479589       -2.4978478221
 C          3.7628131570       -0.0136627423       -1.1558932448
 C          2.5349952467       -0.0881806489       -0.2175173174
 C          1.6847920068       -1.3198887724       -0.6048385901
 O          1.1066464243       -1.2022540733       -1.8809206465
 C          2.9765401577       -0.1815535441        1.2385115817
 Br         4.0716143430       -1.7476764098        1.6025790519
 C          1.6363343163        1.1408496992       -0.3667517362
 Br         2.5995185489        2.8315740709       -0.1794065779
 H          3.2929232455        1.1725129864       -2.6334324715
 H          4.4637256858        0.7462549304       -0.7927567713
 H          4.2769926486       -0.9791664031       -1.1478739014
 H          0.8601103107       -1.4362154514        0.1027645741
 H          2.3139087262       -2.2178963170       -0.5533441393
 H          1.8205006740       -0.9990484644       -2.5083896152
 H          2.1120761653       -0.2523917241        1.9000387940
 H          3.5844045224        0.6794356542        1.5178053513
 H          0.8621950476        1.1434905587        0.4002766342
 H          1.1743909313        1.1584552596       -1.3540480240
 O         -3.9461401527       -3.1446665331       -0.6631034722
 C         -4.3463129453       -1.8086185939       -0.6677200147
 C         -3.2353719279       -0.8330081243       -0.2018541065
 C         -2.1156876496       -0.7791019189       -1.2586285899
 O         -1.5225315292       -2.0480190914       -1.3917460095
 C         -3.8120402106        0.5585172967        0.0339174148
 Br        -4.6080769141        1.3416914554       -1.5620237242
 C         -2.7006800587       -1.3818490308        1.1188970771
 Br        -1.2497931824       -0.3329664374        1.8521724596
 H         -3.1350582822       -3.2144600333       -1.1900662274
 H         -5.2021113116       -1.7465622194        0.0131271937
 H         -4.6813275624       -1.5023487648       -1.6694779854
 H         -1.3696409974       -0.0307826879       -0.9593931926
 H         -2.5429510630       -0.4587091626       -2.2200569791
 H         -0.6408582734       -1.9355529894       -1.7791886963
 H         -3.0389566056        1.2603450210        0.3507159057
 H         -4.6062697604        0.5301310935        0.7809468155
 H         -2.3067631355       -2.3860854932        0.9690040917
 H         -3.4784834818       -1.4006673314        1.8818317081
