  38
        -64.22093220
 O          1.5555451732        0.5049169120       -1.6912883740
 C          2.2108842855        0.5555346354       -0.4524279947
 C          3.0882461833       -0.6884636618       -0.1736470451
 C          4.0999585220       -0.8699932308       -1.3354824245
 O          3.4885270123       -1.2365196654       -2.5354732881
 C          3.8169273438       -0.5327060639        1.1570539553
 Br         5.0889932230        0.9434287064        1.1795059912
 C          2.2550075155       -1.9667670464       -0.1350264484
 Br         0.9407368604       -1.9905223725        1.2847923081
 H          0.7318992676       -0.0034470633       -1.6029316354
 H          1.4971986115        0.6973525307        0.3692217692
 H          2.8575390338        1.4379616231       -0.4872679412
 H          4.8054228797       -1.6721346037       -1.0923022439
 H          4.6674863612        0.0631237624       -1.4547939528
 H          2.8440040714       -0.5405659992       -2.7522390014
 H          4.3961543259       -1.4268356385        1.3932895760
 H          3.1172992510       -0.3257152712        1.9684377686
 H          2.8870384751       -2.8398446479        0.0293015907
 H          1.7031306439       -2.0911292824       -1.0660323630
 O         -2.5451343009       -2.5155255866        0.1056790986
 C         -3.5098322561       -1.5015259058       -0.0297693169
 C         -2.9136383936       -0.0829509046       -0.2288150482
 C         -1.9600277982       -0.0888836356       -1.4427489708
 O         -0.8360404707       -0.9081095025       -1.2515313074
 C         -4.0404046692        0.9246409436       -0.4437641867
 Br        -5.1490505129        0.5362909919       -1.9978740984
 C         -2.1619000096        0.2935413092        1.0492468195
 Br        -1.3629835761        2.0763931118        0.9889674291
 H         -2.1624493002       -2.5099789425        0.9908043465
 H         -4.1949378739       -1.4928096730        0.8277586522
 H         -4.0823011739       -1.7708719378       -0.9220135651
 H         -1.5793054543        0.9207738186       -1.6250745851
 H         -2.5166014278       -0.4132910491       -2.3316456176
 H         -1.1648566476       -1.7952739500       -1.0224662193
 H         -3.6408455997        1.9251039774       -0.6088045325
 H         -4.7177417096        0.9389666466        0.4109296297
 H         -1.3299201607       -0.3876796170        1.2237165395
 H         -2.8281329388        0.2919407705        1.9121898432
