  38
        -64.22082982
 O          1.7752252542        0.7970892292       -1.8625031422
 C          2.3065566410        0.6579239497       -0.5710854835
 C          3.1910787788       -0.6014683197       -0.4081396877
 C          4.3247723468       -0.5689606888       -1.4661807929
 O          3.8539722645       -0.7321732321       -2.7703237261
 C          3.7694452126       -0.6601581351        1.0017477372
 Br         4.9789865285        0.8129077838        1.4072035865
 C          2.4022652227       -1.8810206562       -0.6738733523
 Br         0.9438474986       -2.1637352657        0.5656699449
 H          0.9547259952        0.2814013715       -1.9316190980
 H          1.5126256063        0.6542894357        0.1859298898
 H          2.9257532880        1.5441108951       -0.3998962877
 H          5.0256128705       -1.3917283489       -1.2869711039
 H          4.8725118319        0.3779991948       -1.3643152241
 H          3.2069913010       -0.0233118571       -2.9307342143
 H          4.3515344545       -1.5714024246        1.1487795698
 H          2.9811565614       -0.6045338946        1.7541609110
 H          3.0426518256       -2.7591035667       -0.5862615356
 H          1.9591427250       -1.8557761359       -1.6688191322
 O         -2.3989984301       -2.5120616852       -1.0398400406
 C         -3.3815098781       -1.5039714172       -1.0348315763
 C         -2.8093640774       -0.0655627689       -0.9247418234
 C         -1.7529980979        0.1433336217       -2.0372733816
 O         -0.6258490476       -0.6747421341       -1.8872835065
 C         -3.9206525955        0.9506652977       -1.1681422984
 Br        -5.4242616167        0.7570975772        0.0635396681
 C         -2.1927426690        0.1050073621        0.4612015906
 Br        -1.3606147059        1.8542762565        0.7251779690
 H         -2.0964394650       -2.6931313546       -0.1421725598
 H         -4.1083565289       -1.6753732884       -0.2336347328
 H         -3.9007189140       -1.5988899724       -1.9938283979
 H         -1.3912391891        1.1754009326       -2.0231171008
 H         -2.2293667611       -0.0402611495       -3.0109378070
 H         -0.9476993269       -1.5924294983       -1.8188202056
 H         -4.3361752354        0.8431744819       -2.1694626977
 H         -3.5540359388        1.9685975020       -1.0356907086
 H         -1.3994903928       -0.6216351319        0.6311729030
 H         -2.9510642968        0.0120538579        1.2389255779
