  38
        -64.22124383
 O          1.6824203874       -2.2877567691       -1.0196977577
 C          2.6384483423       -1.2615111784       -0.9855321050
 C          3.2701293573       -1.0509963197        0.4112946783
 C          3.8368254636       -2.4003496185        0.9261003605
 O          2.8396698158       -3.3291761118        1.2288934303
 C          4.3732701714        0.0001204444        0.3378302657
 Br         5.8813967315       -0.5304029586       -0.7762174344
 C          2.2302173966       -0.6049336333        1.4359084122
 Br         1.4637124890        1.1358029056        1.0578541536
 H          0.8257274929       -1.9479273077       -0.7032348692
 H          2.2160772389       -0.3130440722       -1.3447648543
 H          3.4271566490       -1.5642458414       -1.6816513954
 H          4.3971370045       -2.2381058828        1.8532040210
 H          4.5277005089       -2.8011482567        0.1718281104
 H          2.3336040686       -3.4795869172        0.4120463766
 H          4.7893834789        0.1992923414        1.3266060275
 H          4.0045580904        0.9304413814       -0.0967132332
 H          2.6722630019       -0.5279040030        2.4294226362
 H          1.3955708387       -1.3041691378        1.4647464539
 O         -0.6067396257       -0.9141490582       -0.2243189705
 C         -1.9823134967       -1.1884824699       -0.2649954528
 C         -2.8390538743        0.0926324483       -0.1413499612
 C         -2.5470953411        1.0137668467       -1.3505253470
 O         -1.1982425050        1.4110384515       -1.4375253675
 C         -4.3237873470       -0.2561299804       -0.0967141876
 Br        -4.9489588409       -1.1922164874       -1.6872316163
 C         -2.4583962506        0.7643177318        1.1800871623
 Br        -3.3350117447        2.4917857640        1.4540386673
 H         -0.4623650752       -0.1556349484       -0.8271585757
 H         -2.1913046668       -1.8694938633        0.5664949162
 H         -2.2365008485       -1.6986977080       -1.2036751175
 H         -3.2119706577        1.8843326425       -1.3207034836
 H         -2.7498429225        0.4627600090       -2.2735136880
 H         -1.0250266165        2.1402740108       -0.8301225055
 H         -4.9317880150        0.6458622014       -0.0228439409
 H         -4.5445545290       -0.9149848614        0.7435174716
 H         -1.3867711479        0.9571684094        1.2242856284
 H         -2.7458037036        0.1408569577        2.0265439378
