  38
        -64.22163193
 O          1.4884512546       -0.4199598832       -1.8172787753
 C          2.7197022893       -0.2529658120       -1.1633002377
 C          2.7165763846       -0.7138399160        0.3138227767
 C          2.2103306768       -2.1752197926        0.3960884924
 O          0.8922155816       -2.3285564498       -0.0611633684
 C          4.1233386925       -0.6034834388        0.8964154314
 Br         5.4363323177       -1.7347454708        0.0059155547
 C          1.7795417265        0.1342858162        1.1736853201
 Br         2.1949552013        2.0448215367        1.1436429455
 H          0.8392793175        0.2187499903       -1.4738471828
 H          3.0540842911        0.7912094430       -1.2201898415
 H          3.4305162202       -0.8667622923       -1.7245538831
 H          2.2203559243       -2.5200957721        1.4348519391
 H          2.8831548828       -2.8157202093       -0.1885647648
 H          0.8673414458       -1.9281550452       -0.9538061340
 H          4.1343607717       -0.9047395900        1.9444940704
 H          4.5018231973        0.4151769889        0.8058638678
 H          1.8300737382       -0.1702890003        2.2188401758
 H          0.7508090616        0.0538358993        0.8284892052
 O         -1.1588066082       -1.2762676871        1.4818290444
 C         -2.4012289717       -1.4230880167        0.8573987823
 C         -2.8578699586       -0.1272305424        0.1315883065
 C         -1.9000379337        0.2332228666       -1.0315778013
 O         -0.7099902179        0.8624410868       -0.6256765261
 C         -4.2709136755       -0.3102202272       -0.4117598672
 Br        -4.3679717446       -1.6636517952       -1.8097059011
 C         -2.8746817098        0.9697891077        1.1944960082
 Br        -3.2325709091        2.7496209639        0.4623228222
 H         -0.4689316877       -1.7227849502        0.9543186740
 H         -3.1369922602       -1.6543892267        1.6397173093
 H         -2.3956608943       -2.2496817789        0.1408162415
 H         -2.4325855930        0.8664333500       -1.7517678461
 H         -1.5975002531       -0.6831073405       -1.5451661635
 H         -0.8886954151        1.7907237353       -0.4236730259
 H         -4.6427312542        0.6112528086       -0.8616058110
 H         -4.9548647682       -0.6362576272        0.3722162728
 H         -1.9064495407        1.0172265761        1.6924131596
 H         -3.6500752792        0.7812095564        1.9357234354
