  38
        -64.22050581
 O          1.9541099457       -0.9523171484       -2.2613369269
 C          3.0413980491       -0.5914924058       -1.4453737484
 C          2.6463980052       -0.2641758918        0.0131615168
 C          1.9629316626       -1.4974149397        0.6533252143
 O          0.7700683319       -1.8583733407        0.0161928286
 C          3.8823106004        0.1341180251        0.8130964685
 Br         5.2343784639       -1.2640141753        0.9060127541
 C          1.6417534014        0.8854960244        0.0742892121
 Br         2.2747220608        2.5217999143       -0.7850899573
 H          1.3909534708       -0.1802816414       -2.4101664397
 H          3.5853282864        0.2594635042       -1.8764849364
 H          3.7082003137       -1.4585889136       -1.4518411765
 H          1.7024605904       -1.2811342822        1.6946924865
 H          2.6697749740       -2.3390336806        0.6407591793
 H          0.9672314973       -1.9350503424       -0.9342359024
 H          3.6191775903        0.3639461174        1.8460308065
 H          4.3777007989        0.9944169723        0.3619572145
 H          1.4147562914        1.1539626009        1.1055145238
 H          0.7199726596        0.6141768450       -0.4386921462
 O         -2.2295183859       -2.1348407458       -2.1937542892
 C         -3.3695567489       -1.4448734418       -1.7267141140
 C         -2.9395905744       -0.2390605207       -0.8651016541
 C         -2.0006393222        0.6757691376       -1.6895456359
 O         -0.7478199096        0.1090393378       -1.9420881087
 C         -4.1642556703        0.5962054932       -0.5025504841
 Br        -5.5560348863       -0.4228459319        0.4129191408
 C         -2.2336971641       -0.7826960631        0.3742121334
 Br        -1.6175732638        0.6212559409        1.5670335691
 H         -2.5039460901       -2.9497634314       -2.6246605565
 H         -3.9987184767       -2.1138239021       -1.1267740601
 H         -3.9659481850       -1.0794841059       -2.5763780930
 H         -1.8133181142        1.6064989784       -1.1448741237
 H         -2.5042697610        0.9311064985       -2.6343248159
 H         -0.8962634855       -0.7895600701       -2.2778678891
 H         -4.6323226388        1.0094497917       -1.3957733571
 H         -3.8964200915        1.4090154822        0.1724742804
 H         -1.3460061262       -1.3546435030        0.1026853208
 H         -2.9088294113       -1.4027824780        0.9639167889
