  38
        -64.22311242
 O          1.9823867444       -0.7972172565       -2.4159542082
 C          3.0329758175       -0.5643042458       -1.5083373975
 C          2.5557436680       -0.3475429172       -0.0530772184
 C          1.7956985963       -1.6063837317        0.4281642168
 O          0.6559951070       -1.8890069168       -0.3421324386
 C          3.7501291081       -0.0728374321        0.8558415362
 Br         5.0471540606       -1.5258872862        0.9001294367
 C          1.5942739384        0.8383536123        0.0430872271
 Br         2.3619059250        2.5149883561       -0.6120345156
 H          1.4939223128        0.0227330712       -2.5691843910
 H          3.6407586646        0.2918733906       -1.8260244812
 H          3.6586635358       -1.4603926392       -1.5523681605
 H          1.4515124786       -1.4685216286        1.4588857174
 H          2.4813906153       -2.4639999971        0.4062648672
 H          0.9393849503       -1.8348262689       -1.2759614565
 H          3.4286130683        0.0722959280        1.8876122492
 H          4.3006471923        0.8055146536        0.5184366334
 H          1.3046664415        1.0258139718        1.0767000417
 H          0.7036311423        0.6658113798       -0.5615718735
 O         -1.8109760142       -2.2161492682       -1.9567544359
 C         -3.0131315736       -1.6398450683       -1.5125682262
 C         -2.8454501504       -0.2499443074       -0.8429475347
 C         -2.0712340730        0.6887093614       -1.8026309256
 O         -0.7674560332        0.2572638142       -2.0690762705
 C         -4.2156136370        0.3800749808       -0.6145327134
 Br        -5.3952034742       -0.7138004208        0.4953912883
 C         -2.0932234722       -0.4469633392        0.4694990262
 Br        -1.7592140530        1.2223038010        1.4284113703
 H         -1.2841562493       -2.5185115050       -1.2046513166
 H         -3.5351339216       -2.3165001084       -0.8253365837
 H         -3.6282821790       -1.5243952503       -2.4105504954
 H         -1.9821372190        1.6864312356       -1.3620348714
 H         -2.6430101024        0.7792140296       -2.7375232571
 H         -0.8333896827       -0.6557374368       -2.4040494660
 H         -4.7405676067        0.5251874115       -1.5580956526
 H         -4.1259921873        1.3379718089       -0.1016224767
 H         -1.1123513279       -0.8888690541        0.2933998062
 H         -2.6648336910       -1.0742415706        1.1541438000
