  38
        -64.22070282
 O          2.1372805196        1.2702301336       -1.6575449394
 C          3.1933781923        0.6181187472       -0.9924064704
 C          2.7173830828       -0.2997800561        0.1591428842
 C          1.7759663834       -1.3830531826       -0.4163462564
 O          0.6053797929       -0.8372830508       -0.9648548542
 C          3.9168291586       -0.9446681536        0.8470270248
 Br         4.9896619448       -2.0521431720       -0.3440884606
 C          1.9207873857        0.4838288677        1.2049119656
 Br         2.9112680059        1.9902603873        1.9666807782
 H          1.8500566594        2.0398924306       -1.1520937317
 H          3.9246485917        1.3399034556       -0.6109867732
 H          3.6855489836        0.0060657288       -1.7538411629
 H          1.4586370750       -2.0708220683        0.3745537387
 H          2.3172130165       -1.9583578645       -1.1788780582
 H          0.8815347368       -0.1079683805       -1.5553360549
 H          3.5956446022       -1.6008843552        1.6564527333
 H          4.5939252004       -0.1856255079        1.2394222706
 H          1.6488679081       -0.1566675809        2.0438956077
 H          1.0165262673        0.9060315134        0.7672898092
 O         -2.8437152942       -3.0582201147        0.0092472166
 C         -3.8474911813       -2.1589435205       -0.3514749904
 C         -3.2985294142       -0.8140292735       -0.8950626946
 C         -2.5696230316       -1.0719261258       -2.2415577608
 O         -1.5807987721       -2.0608967980       -2.1741586872
 C         -4.4454996298        0.1452367444       -1.1925576933
 Br        -5.5141466197        0.5976930792        0.3797460619
 C         -2.3519344601       -0.2610518641        0.1613527990
 Br        -1.5232691168        1.4218993998       -0.3475798897
 H         -2.2911130171       -3.2053676878       -0.7779338572
 H         -4.4341534010       -1.9838601073        0.5554154338
 H         -4.5116500732       -2.5931631449       -1.1146588514
 H         -2.1566133994       -0.1278533789       -2.6212654135
 H         -3.3043594241       -1.4329023352       -2.9689812802
 H         -0.7820316161       -1.6979389696       -1.7460792991
 H         -5.1395191482       -0.2923726838       -1.9094989573
 H         -4.0760575823        1.0939330708       -1.5844946409
 H         -1.5370988031       -0.9591039434        0.3472232664
 H         -2.8833844739       -0.0649940343        1.0927086687
