  11
  -10.500828159999999       0.11041408930945844      !gc
 C          1.2606735130        0.2720856234        0.0000015020
 C         -0.0000070339       -0.5837201853       -0.0000001617
 C         -1.2606669969        0.2720885672       -0.0000058533
 H          2.1505658906       -0.3533231332        0.0000088255
 H          1.2883202308        0.9088574688        0.8818054402
 H          1.2883094782        0.9087434588       -0.8818646316
 H         -0.0000097733       -1.2286230303        0.8817121273
 H         -0.0000009307       -1.2286903026       -0.8816644099
 H         -2.1505582494       -0.3533037361        0.0001452070
 H         -1.2883913199        0.9087445414       -0.8818387898
 H         -1.2882291563        0.9088586903        0.8817500122
  11
  -10.500828159999999       0.11041408930945844      !gc
 C          1.2606596005        0.2720943606        0.0000042015
 C         -0.0000085532       -0.5837352929        0.0000025378
 C         -1.2606548192        0.2720970094       -0.0000031537
 H          2.1505423289       -0.3533420044       -0.0000611896
 H          1.2883301407        0.9088097512        0.8818242118
 H          1.2882843410        0.9088202370       -0.8817870128
 H         -0.0000308049       -1.2286482703        0.8816782907
 H         -0.0000268332       -1.2286967012       -0.8816464128
 H         -1.2882648138        0.9088236390        0.8818134748
 H         -2.1505229308       -0.3533238125       -0.0000253032
 H         -1.2882664773        0.9087964294       -0.8818387886
  11
  -10.500828150000000       0.11041292091955390      !gc
 C          1.2607000364        0.2720934309       -0.0000019400
 C         -0.0000211987       -0.5837220946       -0.0000036038
 C         -1.2606834998        0.2720876968       -0.0000092954
 H          1.2882164154        0.9089979293       -0.8816603867
 H          2.1506227167       -0.3533150433       -0.0001358489
 H          1.2883691090        0.9084553706        0.8819979826
 H          0.0000209794       -1.2286376688        0.8816842181
 H          0.0000051699       -1.2285491779       -0.8817163279
 H         -2.1505502145       -0.3533773309       -0.0002294432
 H         -1.2882013191        0.9090104041       -0.8817166963
 H         -1.2884272984        0.9086195584        0.8819533390
  11
  -10.500828150000000       0.11041292091955390      !gc
 C          1.2606677258        0.2720910642        0.0000057695
 C         -0.0000104471       -0.5837380607        0.0000041058
 C         -1.2606624620        0.2720927468       -0.0000015858
 H          1.2883004469        0.9086352184        0.8818233560
 H          1.2882636407        0.9089762622       -0.8816715179
 H          2.1505839754       -0.3532379142       -0.0001521449
 H         -0.0000750090       -1.2287246289        0.8816310677
 H         -0.0000106580       -1.2285822190       -0.8817164771
 H         -2.1505627327       -0.3532883721       -0.0000925565
 H         -1.2881498993        0.9088577932       -0.8817830340
 H         -1.2882879946        0.9087261916        0.8818625213
  11
  -10.500828150000000       0.11041292091955390      !mtd2
 C          1.2606177562        0.2721062261        0.0000030721
 C          0.0000050271       -0.5837803037        0.0000014088
 C         -1.2606187291        0.2721163233       -0.0000042829
 H          1.2880904643        0.9088795565       -0.8817505276
 H          2.1505251030       -0.3532506975       -0.0001459531
 H          1.2883188096        0.9087816398        0.8818716505
 H          0.0000253519       -1.2286408674        0.8817183118
 H          0.0000015733       -1.2287751335       -0.8816281655
 H         -1.2882379712        0.9088918076        0.8817439456
 H         -2.1505012637       -0.3532523055        0.0000370401
 H         -1.2882703803        0.9087700932       -0.8818486616
  11
  -10.500828150000000       0.11041292091955390      !mtd12
 C          1.2606647407        0.2720954921        0.0000022844
 C         -0.0000092216       -0.5837393438        0.0000006207
 C         -1.2606560862        0.2720969621       -0.0000050709
 H          1.2882707963        0.9088803581        0.8817726499
 H          1.2883875315        0.9087719244       -0.8818349840
 H          2.1505277889       -0.3533485929        0.0000788552
 H         -0.0000318580       -1.2286622818        0.8816790481
 H         -0.0000759993       -1.2286731604       -0.8816686220
 H         -1.2886367991        0.9082590026       -0.8822023179
 H         -1.2878755713        0.9093496716        0.8814306621
 H         -2.1505591307       -0.3533022992        0.0007705189
  11
  -10.500828150000000       0.11041292091955390      !mtd14
 C          1.2606183891        0.2721152867        0.0000020011
 C         -0.0000053940       -0.5837865599        0.0000003377
 C         -1.2606031170        0.2721169917       -0.0000053539
 H          2.1505506882       -0.3532832768        0.0003055859
 H          1.2879843135        0.9092013229        0.8815734873
 H          1.2883396680        0.9085157219       -0.8819792584
 H         -0.0000211041       -1.2286884151        0.8816838380
 H         -0.0000234272       -1.2287333817       -0.8816433432
 H         -1.2882004473        0.9089872014       -0.8817434913
 H         -1.2882914465        0.9086856111        0.8819603605
 H         -2.1504559600       -0.3533220745       -0.0001212481
  11
  -10.500828139999999       0.11041175254180559      !mtd5
 C          1.2606129306        0.2720984239        0.0000052851
 C         -0.0000075854       -0.5837999835        0.0000036217
 C         -1.2606328135        0.2721070922       -0.0000020700
 H          1.2881405911        0.9089530955        0.8817379477
 H          1.2883011526        0.9087566659       -0.8818527589
 H          2.1505814487       -0.3532108714        0.0001209866
 H         -0.0000349599       -1.2285718877        0.8817906464
 H          0.0000263202       -1.2288545527       -0.8816152073
 H         -1.2880255546        0.9091296593        0.8816802354
 H         -2.1506368066       -0.3530906054       -0.0000482478
 H         -1.2880248565        0.9087300970       -0.8818950760
  11
  -10.500828120000000       0.11040941582360733      !mtd1
 C          1.2606716761        0.2720953073        0.0000047687
 C          0.0000214234       -0.5837740515        0.0000031052
 C         -1.2606803711        0.2721145724       -0.0000025867
 H          1.2881348182        0.9090608898       -0.8815778848
 H          2.1505473416       -0.3532089815       -0.0003939824
 H          1.2883732955        0.9086539966        0.8819583040
 H          0.0000371591       -1.2289536610        0.8815008809
 H          0.0000326535       -1.2284285677       -0.8818442106
 H         -1.2880725836        0.9096023966       -0.8811934366
 H         -1.2886243092        0.9080180149        0.8823169088
 H         -2.1505800579       -0.3532635163       -0.0008295856
  11
  -10.496599020000000        1.2573214368041315E-003 !gc
 C          1.2681945305        0.2699742157        0.0000011832
 C          0.0037603834       -0.5819119792       -0.0000005008
 C         -1.2721300005        0.2725741845       -0.0000062336
 H          1.3005862824        0.9040304695        0.8835607752
 H          1.2989629642        0.9064064527       -0.8819041431
 H          2.1548931909       -0.3605359006       -0.0016704884
 H          0.0170012753       -1.2302631863        0.8780341991
 H          0.0170297275       -1.2303116664       -0.8779996969
 H         -1.8832267888        0.0707922863        0.8759444858
 H         -1.8786206907        0.0776517715       -0.8806969266
 H         -1.0245394788        1.3313199087        0.0047979486
  11
  -10.496598980000000        1.2572682182884337E-003 !gc
 C          1.2681987211        0.2699719887        0.0000014403
 C          0.0037677374       -0.5819169725       -0.0000002436
 C         -1.2721406846        0.2725767552       -0.0000059766
 H          1.2988933314        0.9064935280       -0.8818422190
 H          2.1549251319       -0.3605030482       -0.0017782986
 H          1.3006057060        0.9039414347        0.8836200769
 H          0.0170473240       -1.2302881667        0.8780189190
 H          0.0170944102       -1.2303137644       -0.8779988226
 H         -1.8832361908        0.0708570235        0.8759572307
 H         -1.8786712416        0.0776282714       -0.8806611376
 H         -1.0245822444        1.3313302654        0.0047412129
  11
  -10.496598949999999        1.2572283058787366E-003 !mtd1
 C          1.2719416254        0.2726035176        0.0000033647
 C         -0.0037169173       -0.5819888184        0.0000016544
 C         -1.2680512922        0.2700486532       -0.0000040390
 H          1.8802299125        0.0744641557        0.8787526743
 H          1.0238697208        1.3312042670       -0.0004537691
 H          1.8807991279        0.0737407687       -0.8781626539
 H         -0.0163853178       -1.2302681247        0.8780854949
 H         -0.0163560012       -1.2302350611       -0.8781188580
 H         -1.3001245146        0.9047915344       -0.8831035162
 H         -1.2995563025        0.9058022123        0.8823642686
 H         -2.1545431975       -0.3607305545        0.0006246797
  11
  -10.496598900000000        1.2571617880146671E-003 !gc
 C          1.2682082011        0.2699666635        0.0000032264
 C          0.0037551255       -0.5818941951        0.0000015423
 C         -1.2721404265        0.2725635184       -0.0000041905
 H          2.1548812206       -0.3605738652        0.0011460872
 H          1.2992534167        0.9060015112        0.8821827138
 H          1.3003869699        0.9044148149       -0.8832800484
 H          0.0169693244       -1.2302658625        0.8780214794
 H          0.0169834366       -1.2302525182       -0.8780268542
 H         -1.8822199429        0.0723017841       -0.8770077221
 H         -1.0245158039        1.3312870545       -0.0027132553
 H         -1.8796281468        0.0761823903        0.8796707098
  11
  -10.496598830000000        1.2570686689146000E-003 !mtd6
 C          1.2683506761        0.2699014574        0.0000186143
 C          0.0037591996       -0.5817001719        0.0000169293
 C         -1.2722667757        0.2724965060        0.0000111967
 H          1.2986564950        0.9069854620       -0.8814947211
 H          2.1549365985       -0.3610002106       -0.0025008153
 H          1.3013608060        0.9033463526        0.8841038483
 H          0.0167025504       -1.2302644900        0.8778446506
 H          0.0162868420       -1.2297133433       -0.8782401574
 H         -1.8803269100        0.0743966880       -0.8789175871
 H         -1.0244214439        1.3311454775        0.0006406873
 H         -1.8813251841        0.0734628559        0.8780070974
