  58
        -58.96871038
 C          2.6041104307       -2.0294624672        1.4493594293
 C          1.9775795989       -0.7512334591        0.9030883888
 C          2.7818174268        0.0019780388       -0.1766121602
 C          4.1692919526        0.4188822316        0.3546107449
 C          4.1771580056        1.3291859390        1.5782710621
 C          3.0412559385       -0.8964827252       -1.4044923857
 C          1.8091912077       -1.4642345042       -2.1016945919
 C          1.9375983211        1.2356242381       -0.5606419996
 C          2.5386488577        2.1679998024       -1.6070327962
 H          2.7577797595       -2.7638960360        0.6632868946
 H          1.9396882662       -2.4676509641        2.1921837995
 H          3.5582696693       -1.8310057086        1.9299860341
 H          1.7986976019       -0.0695205097        1.7372277296
 H          0.9994137110       -0.9981364510        0.4873203570
 H          4.7100681829        0.9173374000       -0.4523477137
 H          4.7315194701       -0.4863061384        0.5928023787
 H          3.6725311676        2.2702413887        1.3768162963
 H          5.2055468578        1.5535229437        1.8556998994
 H          3.6980916449        0.8538353681        2.4300367905
 H          3.6765100510       -1.7282507103       -1.0931194781
 H          3.6170408887       -0.3220012832       -2.1327754341
 H          2.1211164398       -2.0575087969       -2.9594472494
 H          1.1556820270       -0.6744693603       -2.4619704484
 H          1.2398571923       -2.1111611245       -1.4397500708
 H          1.7416491431        1.8132893245        0.3450710799
 H          0.9686288215        0.8887105827       -0.9240265518
 H          2.7068787878        1.6526265355       -2.5488163781
 H          3.4810185669        2.5909743569       -1.2696285730
 H          1.8510063751        2.9907792717       -1.7944536702
 C         -2.6379938647       -2.0261089040       -1.4594753156
 C         -2.0015976241       -0.7478336428       -0.9248664757
 C         -2.7817788211       -0.0001552764        0.1762239386
 C         -4.1789380150        0.4234199964       -0.3235998322
 C         -4.2103132145        1.3455742192       -1.5379507295
 C         -3.0187065743       -0.9060083513        1.4032410701
 C         -1.7747610351       -1.4871278680        2.0674443128
 C         -1.9269268986        1.2289966953        0.5510326127
 C         -2.5055665323        2.1580037741        1.6129289765
 H         -2.7669089459       -2.7647122624       -0.6728802795
 H         -1.9928540850       -2.4582677018       -2.2225352925
 H         -3.6059193812       -1.8293106485       -1.9124476495
 H         -1.8447944826       -0.0631062109       -1.7609396480
 H         -1.0127322747       -0.9931961856       -0.5339691971
 H         -4.7029587762        0.9144853512        0.4988137737
 H         -4.7469354761       -0.4787676485       -0.5594039931
 H         -3.7001260701        2.2838856485       -1.3378409747
 H         -5.2438611539        1.5740712584       -1.7918922561
 H         -3.7497655903        0.8777793817       -2.4039945156
 H         -3.6668088977       -1.7311038296        1.1007139321
 H         -3.5733772642       -0.3330154119        2.1488394206
 H         -2.0706544648       -2.0839108530        2.9284806464
 H         -1.1073123226       -0.7044174913        2.4172532580
 H         -1.2259174338       -2.1335730188        1.3880076449
 H         -1.7457507953        1.8105440294       -0.3552934855
 H         -0.9526465097        0.8772937419        0.8949373780
 H         -1.8125608774        2.9784712171        1.7905461044
 H         -2.6565050157        1.6387911857        2.5555613163
 H         -3.4534289780        2.5845211383        1.2959233517
