  58
        -58.96865746
 C          3.2385733225       -0.1237732682        2.6088075050
 C          2.5438057535        0.4391510066        1.3734630781
 C          3.0231891905       -0.1040914023        0.0106489628
 C          4.5336755371        0.1427703630       -0.1874007031
 C          4.9964820329        1.5943619342       -0.1188210870
 C          2.8212217080       -1.6314931125       -0.0814092189
 C          1.3874531073       -2.1352113764        0.0476097903
 C          2.1950660740        0.6339298438       -1.0614999883
 C          2.4553822785        0.2382308731       -2.5109762116
 H          3.1005495089       -1.1988324822        2.6867136715
 H          2.8144229753        0.3328973434        3.5012742791
 H          4.3039531834        0.0897067998        2.5985656747
 H          2.6662431054        1.5242820044        1.3712194606
 H          1.4729243519        0.2470017990        1.4629298135
 H          4.8236713189       -0.2669938050       -1.1570356851
 H          5.0764981962       -0.4302483519        0.5670304977
 H          4.5242202202        2.1988657014       -0.8886010221
 H          6.0730930519        1.6380920232       -0.2735939472
 H          4.7802032308        2.0355470291        0.8504494805
 H          3.4252351447       -2.1037832204        0.6958288992
 H          3.2227412067       -1.9734110925       -1.0375952765
 H          1.3801899346       -3.2224910841       -0.0067368422
 H          0.7613348105       -1.7585970216       -0.7567778040
 H          0.9477745215       -1.8464645954        0.9987645052
 H          2.3742654899        1.7057853512       -0.9568618466
 H          1.1381348561        0.4754975984       -0.8427195920
 H          1.8198735252        0.8303894491       -3.1672990541
 H          2.2287048156       -0.8103508566       -2.6844689618
 H          3.4886558014        0.4211472006       -2.7933996240
 C         -1.3033700021        2.0294392041        0.3598522808
 C         -1.7085310734        0.5861316623        0.6394534121
 C         -3.0241570917        0.1048889820       -0.0066874991
 C         -4.2222793777        0.9494337797        0.4759701011
 C         -4.4888678870        0.9502105595        1.9776118731
 C         -2.9806326183        0.2582718774       -1.5418300320
 C         -1.8513732591       -0.4689411095       -2.2640628162
 C         -3.1856001580       -1.3752612623        0.4000307334
 C         -4.4303268462       -2.0873951801       -0.1188309209
 H         -1.1542923733        2.2021893108       -0.7026196766
 H         -0.3656905921        2.2468988333        0.8682766500
 H         -2.0510985406        2.7290905636        0.7234915775
 H         -1.7873202363        0.4513047461        1.7202490185
 H         -0.9062846652       -0.0724891366        0.3025227697
 H         -5.1196904417        0.5948560078       -0.0349936369
 H         -4.0670379916        1.9805113583        0.1519379900
 H         -4.7048199782       -0.0498193257        2.3438335502
 H         -5.3521195629        1.5780729386        2.1909262256
 H         -3.6424550922        1.3476716001        2.5312604008
 H         -2.9137583098        1.3220860601       -1.7788383583
 H         -3.9323801945       -0.0909425882       -1.9469578473
 H         -1.9512350187       -0.3170044774       -3.3373537430
 H         -1.8806306558       -1.5386146860       -2.0741924250
 H         -0.8790364967       -0.0875361945       -1.9651239017
 H         -3.1825784874       -1.4326705579        1.4903710344
 H         -2.3054431024       -1.9240256029        0.0584923814
 H         -4.4339841273       -3.1154185933        0.2389950901
 H         -4.4501594346       -2.1123407617       -1.2050680679
 H         -5.3392262912       -1.6076454527        0.2341136322
