  58
        -58.96868994
 C          2.3677076999       -0.7954081750        1.7287522698
 C          2.1334156328       -0.8954297109        0.2249644053
 C          3.1121376398       -0.1111404979       -0.6738397850
 C          3.0812031881        1.3966364720       -0.3459305677
 C          1.7333125927        2.0939178157       -0.4961786432
 C          4.5674884697       -0.5717883340       -0.4474794321
 C          4.8583151862       -2.0457457152       -0.7099091418
 C          2.6654213933       -0.3733206044       -2.1276448993
 C          3.4888692751        0.3013150667       -3.2197291605
 H          3.3491873917       -1.1714623891        2.0044279522
 H          1.6236981352       -1.3937843171        2.2524612533
 H          2.2785540464        0.2297455886        2.0784225504
 H          1.1216217661       -0.5510400718        0.0066074623
 H          2.1719622028       -1.9482125664       -0.0623494879
 H          3.8063127257        1.9016636089       -0.9872320002
 H          3.4277033738        1.5314244350        0.6806726019
 H          1.3657853201        2.0312341027       -1.5171344385
 H          1.8409662216        3.1475943709       -0.2444136252
 H          0.9903909793        1.6666470577        0.1708101455
 H          4.8432800960       -0.3426062864        0.5838354891
 H          5.2203068207        0.0287148056       -1.0841336035
 H          5.9102086601       -2.2470433468       -0.5151407337
 H          4.6529502395       -2.3136009375       -1.7428592772
 H          4.2697338259       -2.6886644022       -0.0609607143
 H          1.6268042951       -0.0536570673       -2.2307191989
 H          2.6775009613       -1.4513415728       -2.3008885503
 H          3.4659092050        1.3834693284       -3.1233746158
 H          3.0771269019        0.0436995112       -4.1939433713
 H          4.5244602292       -0.0271338123       -3.1976099450
 C         -1.5412369958       -0.3774838369       -1.3650395152
 C         -2.1679285510       -0.8758983728       -0.0666118054
 C         -3.0946944249        0.1137983042        0.6716869254
 C         -2.3074383452        1.3515716005        1.1533504956
 C         -1.2240923817        1.1012622373        2.1977880290
 C         -4.2021507873        0.6394724883       -0.2648801870
 C         -5.1152412370       -0.4151817051       -0.8814449064
 C         -3.6952609683       -0.6591409984        1.8641094133
 C         -4.6523842930        0.1237059641        2.7569338215
 H         -2.2962078864       -0.1811665473       -2.1214967843
 H         -0.8670127158       -1.1380203459       -1.7554658859
 H         -0.9676274057        0.5320878867       -1.2078420851
 H         -1.3675829760       -1.1699367168        0.6154466804
 H         -2.7364782205       -1.7820983781       -0.2855696861
 H         -3.0176383908        2.0739327478        1.5611697872
 H         -1.8486049800        1.8258811862        0.2834166274
 H         -0.7019150335        2.0332811099        2.4072594592
 H         -0.4924696908        0.3776436311        1.8497962359
 H         -1.6471818771        0.7400208630        3.1310422642
 H         -3.7295183386        1.2062084324       -1.0695029803
 H         -4.8188003317        1.3467272274        0.2932339431
 H         -5.6633012130       -0.9601421428       -0.1175487846
 H         -4.5536343055       -1.1279837110       -1.4790283652
 H         -5.8412952775        0.0694663482       -1.5317572268
 H         -2.8736511469       -1.0349696801        2.4770075410
 H         -4.2211548914       -1.5345503643        1.4779975559
 H         -4.9906430063       -0.5134822192        3.5721692756
 H         -5.5288961139        0.4528878241        2.2053213699
 H         -4.1695478725        0.9949577815        3.1910136904
