  58
        -58.96871572
 C          3.9643609040        0.0747550464        2.2318253383
 C          2.8275839399       -0.5346215080        1.4182443542
 C          2.9004609171       -0.3407831312       -0.1112113716
 C          2.9045900307        1.1572874709       -0.4823042320
 C          1.6938999203        1.9693538493       -0.0340028180
 C          4.2049647587       -0.9315943559       -0.6860404434
 C          4.4383598590       -2.4188716142       -0.4419710535
 C          1.6629953939       -1.0543303088       -0.6933954808
 C          1.4904302172       -0.9856240594       -2.2069873545
 H          4.9239802348       -0.3553358436        1.9581717441
 H          3.7986731423       -0.1229744964        3.2893605788
 H          4.0156381099        1.1518725087        2.0976985112
 H          1.8847021887       -0.1133943465        1.7731621188
 H          2.7874671496       -1.6057653047        1.6265086900
 H          2.9949843186        1.2411781922       -1.5672274376
 H          3.8029928406        1.6117405997       -0.0599126530
 H          1.8234748075        3.0069715403       -0.3366697510
 H          1.5785386638        1.9493600752        1.0463229946
 H          0.7779621832        1.6015436285       -0.4874120280
 H          5.0464999765       -0.3752382400       -0.2685201464
 H          4.2173444459       -0.7515602779       -1.7629142927
 H          3.6529520099       -3.0228570715       -0.8883204144
 H          4.4887127323       -2.6444648616        0.6198043933
 H          5.3841698215       -2.7150112333       -0.8920952846
 H          0.7753645327       -0.6276825301       -0.2230225754
 H          1.6978508463       -2.1040942510       -0.3950497756
 H          1.3766958717        0.0399212354       -2.5482030354
 H          0.5961412433       -1.5354492333       -2.4962585579
 H          2.3355573483       -1.4319903978       -2.7239068003
 C         -2.9452572334        0.2521546608       -2.4963730775
 C         -2.1791778732        0.6125663197       -1.2280188291
 C         -2.8976282944        0.3381875500        0.1100094188
 C         -4.2317472892        1.1093893218        0.1913817083
 C         -4.1406723699        2.6278991494        0.0823097021
 C         -3.2531936659       -1.1569255724        0.2532490259
 C         -2.0861718204       -2.1381528252        0.2132642166
 C         -1.9275254521        0.7867138451        1.2232520222
 C         -2.4252670704        0.6318875232        2.6563415421
 H         -3.1801813827       -0.8082884687       -2.5303680757
 H         -2.3334668789        0.4867343031       -3.3657313262
 H         -3.8708035118        0.8156852973       -2.5774418730
 H         -1.9225166957        1.6733315019       -1.2685061014
 H         -1.2375993323        0.0616642663       -1.2307117511
 H         -4.7164414116        0.8582297497        1.1369326709
 H         -4.8879144062        0.7433942350       -0.6008003101
 H         -3.5417409418        3.0487486200        0.8854086757
 H         -5.1392362855        3.0558957071        0.1498899897
 H         -3.7104536172        2.9330788238       -0.8677157549
 H         -3.9538962017       -1.4196490578       -0.5417533757
 H         -3.7877527078       -1.2933363418        1.1955123442
 H         -1.5449015524       -2.0755051896       -0.7266209788
 H         -2.4649389150       -3.1537131794        0.3134560482
 H         -1.3887357535       -1.9614010591        1.0275950929
 H         -1.6718121746        1.8350234180        1.0560090175
 H         -1.0004443748        0.2196756721        1.1191662033
 H         -3.3169926111        1.2266757056        2.8344259497
 H         -1.6539704527        0.9713417321        3.3455441070
 H         -2.6478781755       -0.4059106832        2.8892856232
