  58
        -58.96865820
 C          1.5625970701       -0.2997291811        1.4003220089
 C          2.1341088963       -0.8356649196        0.0915402687
 C          3.1041131995        0.0958061781       -0.6663408659
 C          2.3970188823        1.3986651887       -1.0972751163
 C          1.2487237810        1.2482927704       -2.0898745181
 C          4.2832962100        0.5191668631        0.2340833201
 C          5.1338321361       -0.6113187156        0.8038563290
 C          3.5980116745       -0.6984526204       -1.8933325510
 C          4.5764319234        0.0250190181       -2.8126965338
 H          2.3448616477       -0.1262606589        2.1343177700
 H          0.8694303760       -1.0289330841        1.8164915981
 H          1.0208207026        0.6301706436        1.2483694442
 H          1.3050535539       -1.0830869340       -0.5744939797
 H          2.6524444256       -1.7734763423        0.3013153152
 H          3.1427870676        2.0675007193       -1.5319711539
 H          2.0196547944        1.8961326936       -0.2015485038
 H          1.5970931146        0.8696390218       -3.0469674210
 H          0.7900962287        2.2204782057       -2.2626300429
 H          0.4818497145        0.5772924488       -1.7140211100
 H          3.8867299655        1.1089834872        1.0629037225
 H          4.9320146178        1.1846488106       -0.3388259708
 H          5.9249591626       -0.1923776357        1.4231469391
 H          5.6013619913       -1.1927248803        0.0137329628
 H          4.5432148843       -1.2807334913        1.4232991417
 H          2.7271356270       -0.9997574774       -2.4787798368
 H          4.0697438891       -1.6180949497       -1.5415455586
 H          4.1435220204        0.9360045192       -3.2168116349
 H          4.8348377237       -0.6228977229       -3.6483922845
 H          5.4954610709        0.2799419586       -2.2918289333
 C         -2.3051272019       -0.6623957614       -1.7412927807
 C         -2.0909188934       -0.8039795279       -0.2378446787
 C         -3.1154334836       -0.0918791387        0.6697440745
 C         -3.1336906813        1.4277824421        0.4007517555
 C         -1.8167125832        2.1682828297        0.6088679223
 C         -4.5477204747       -0.5962873995        0.3954106271
 C         -4.7863869438       -2.0895710532        0.5932785064
 C         -2.6873667029       -0.3941160722        2.1213370028
 C         -3.5596188373        0.2022125895        3.2210364915
 H         -3.2631454460       -1.0741101692       -2.0469502563
 H         -1.5253953595       -1.2066051190       -2.2720624461
 H         -2.2591133129        0.3773952631       -2.0542408004
 H         -1.0984967567       -0.4254047131        0.0106543196
 H         -2.0895132378       -1.8667448146        0.0130589291
 H         -3.8909770761        1.8803565641        1.0440834149
 H         -3.4628238482        1.5900743694       -0.6276187689
 H         -1.9600986212        3.2265936741        0.3977187419
 H         -1.0435945641        1.7979637053       -0.0581383455
 H         -1.4675093708        2.0773363246        1.6340780195
 H         -4.8121685582       -0.3360736309       -0.6314911081
 H         -5.2349728472       -0.0467590254        1.0417416155
 H         -4.5906334604       -2.3907480271        1.6188723261
 H         -4.1608116424       -2.6830227647       -0.0680336201
 H         -5.8256907033       -2.3227862188        0.3688754066
 H         -1.6649729425       -0.0371241131        2.2588901594
 H         -2.6585232913       -1.4778275588        2.2518170016
 H         -3.5827203134        1.2871853881        3.1653671171
 H         -3.1551102895       -0.0741433602        4.1931147934
 H         -4.5790991715       -0.1698545436        3.1657785278
