  58
        -58.96883580
 C          2.6426885171        1.8529481738        1.5925841031
 C          1.9403178701        0.6484221881        0.9749625778
 C          2.7496883954       -0.1614245577       -0.0599274796
 C          3.1550463419        0.7202825769       -1.2601665134
 C          2.0155046462        1.3490712253       -2.0554560300
 C          4.0642196794       -0.6901875288        0.5511654511
 C          3.9241509468       -1.5967958228        1.7695407129
 C          1.8383828919       -1.3234043145       -0.5070169391
 C          2.4191758459       -2.2823501348       -1.5405462692
 H          3.5374360219        1.5585351623        2.1344020597
 H          1.9705566853        2.3397563694        2.2971055686
 H          2.9190338968        2.5829031095        0.8364670787
 H          1.0215135153        0.9929888575        0.4979036406
 H          1.6391605555       -0.0258281068        1.7792836359
 H          3.7598237892        0.1170870440       -1.9404615512
 H          3.8031524333        1.5189825605       -0.8940517874
 H          1.4010797387        1.9919323575       -1.4311064223
 H          1.3798153441        0.5918644124       -2.5066219364
 H          2.4284680343        1.9577141848       -2.8579842582
 H          4.6837346247        0.1661108397        0.8250578020
 H          4.6093181681       -1.2329176285       -0.2237770348
 H          3.3624758157       -2.4964410666        1.5327069524
 H          3.4296914179       -1.0851640056        2.5908641310
 H          4.9124471012       -1.8999740169        2.1104881163
 H          0.9181328138       -0.8984432941       -0.9113138194
 H          1.5548258333       -1.8977511993        0.3774969197
 H          2.6758549862       -1.7657909006       -2.4615097050
 H          1.6806908907       -3.0457442316       -1.7795934878
 H          3.3074616255       -2.7825456827       -1.1642731917
 C         -2.4813863624        1.5363400813       -2.1423553717
 C         -1.8553122485        1.0362886352       -0.8450435806
 C         -2.7501445406        0.1630441117        0.0589965202
 C         -4.0255901776        0.9236639385        0.4782974531
 C         -3.8129278847        2.2197768386        1.2535599066
 C         -3.2259308585       -1.1019095902       -0.6864267865
 C         -2.1348020679       -2.0232506656       -1.2222512750
 C         -1.8926544990       -0.2070328962        1.2875901353
 C         -2.5706402293       -1.0627092989        2.3524393728
 H         -2.7899949540        0.7110399133       -2.7783649824
 H         -1.7499959008        2.1267295440       -2.6917161237
 H         -3.3445255314        2.1678679858       -1.9500902224
 H         -1.5213822201        1.9002735880       -0.2664481660
 H         -0.9611662427        0.4625495906       -1.0943710939
 H         -4.6408781271        0.2547114213        1.0832739802
 H         -4.6025632873        1.1482089813       -0.4210211707
 H         -3.2914443711        2.0415102954        2.1900532624
 H         -4.7786622332        2.6640588575        1.4876537947
 H         -3.2456273023        2.9418241062        0.6724908578
 H         -3.8574349410       -0.7913250190       -1.5213116344
 H         -3.8636348038       -1.6767311981       -0.0119855931
 H         -1.5139352518       -1.5190357171       -1.9579173916
 H         -2.5940425757       -2.8826149296       -1.7075940395
 H         -1.4971554720       -2.3921679723       -0.4236085374
 H         -1.5456046859        0.7166024828        1.7551930993
 H         -1.0020403712       -0.7323548502        0.9387539938
 H         -3.4373115904       -0.5613328031        2.7746908352
 H         -1.8684688903       -1.2547431545        3.1617902187
 H         -2.8862575054       -2.0215571398        1.9500898596
