  58
        -58.96873937
 C          3.8225367295       -0.0687124728        2.3687874036
 C          2.7633905366        0.5322925448        1.4508454656
 C          2.9042001234        0.2175391606       -0.0535191458
 C          4.2658219164        0.6978975025       -0.5983730728
 C          4.5696046667        2.1846166241       -0.4454856225
 C          2.8492478633       -1.3031692367       -0.3106984892
 C          1.5767448220       -2.0182415492        0.1310603549
 C          1.7375135203        0.9434864945       -0.7549003944
 C          1.6326244625        0.7583585596       -2.2648502747
 H          3.8168582608       -1.1544377134        2.3239225552
 H          3.6184053077        0.2244795516        3.3970473061
 H          4.8177530977        0.2841450408        2.1123338434
 H          2.7704959855        1.6169786605        1.5763003187
 H          1.7823064285        0.1869981856        1.7834942640
 H          4.3206134668        0.4408406596       -1.6581427857
 H          5.0541315377        0.1300935643       -0.1000664290
 H          3.8399502374        2.7954956134       -0.9702106490
 H          5.5498216274        2.3984160440       -0.8678087744
 H          4.5842353045        2.4820194654        0.5995770119
 H          3.7001414879       -1.7662390941        0.1929146858
 H          2.9898948642       -1.4751727960       -1.3797618270
 H          1.6638798894       -3.0803947489       -0.0911360263
 H          0.7048751085       -1.6376953609       -0.3929094374
 H          1.4119847725       -1.9135119944        1.2000310445
 H          1.8173561479        2.0111800557       -0.5407407409
 H          0.8053689031        0.6044217678       -0.2994499667
 H          1.4743289250       -0.2842422442       -2.5275759367
 H          2.5259416763        1.1126806334       -2.7719538829
 H          0.7868942617        1.3308688321       -2.6425443272
 C         -2.9441716900       -0.5663681549       -2.5302487380
 C         -2.1749713270       -0.6971216636       -1.2199808546
 C         -2.9012497637       -0.2132924306        0.0528525870
 C         -3.2829373383        1.2779520941       -0.0596480645
 C         -2.1335340700        2.2564343464       -0.2787493411
 C         -4.2215179391       -0.9834689637        0.2648848764
 C         -4.1029382948       -2.4972314129        0.4084745539
 C         -1.9266029729       -0.4493997327        1.2259047024
 C         -2.4327213897       -0.0701848946        2.6135453173
 H         -3.8620103301       -1.1477648490       -2.5135079227
 H         -2.3285722040       -0.9364700654       -3.3482463133
 H         -3.1932835374        0.4697820729       -2.7427019901
 H         -1.2416922045       -0.1397388092       -1.3152351738
 H         -1.9026008825       -1.7456653762       -1.0819172095
 H         -3.8139165706        1.5658383147        0.8499360128
 H         -3.9932046931        1.3883388562       -0.8815215398
 H         -1.5994386797        2.0432337217       -1.2005825249
 H         -1.4259084946        2.2314269984        0.5455321509
 H         -2.5291155723        3.2681493717       -0.3482071724
 H         -4.8846169454       -0.7657765789       -0.5747612480
 H         -4.7100877597       -0.5873959537        1.1573355989
 H         -3.4891014910       -2.7685892395        1.2630960971
 H         -3.6754213112       -2.9487151551       -0.4827384889
 H         -5.0926453535       -2.9250642001        0.5579318812
 H         -1.0119245072        0.1133674747        1.0297678908
 H         -1.6473712231       -1.5050106826        1.2347115699
 H         -1.6538116924       -0.2665730833        3.3483245220
 H         -3.3074003343       -0.6520227148        2.8911607090
 H         -2.6855053111        0.9851993001        2.6694795344
