  58
        -58.96865305
 C          1.6639189736       -1.6279750328        0.6646506310
 C          1.6913564451       -0.6915164816       -0.5385659962
 C          2.9401144788        0.2025235616       -0.6838740171
 C          3.1352789913        1.0946322542        0.5604033711
 C          1.9781752859        2.0210341447        0.9191695802
 C          4.2215250303       -0.6482766404       -0.8086952350
 C          4.2773248777       -1.6184281724       -1.9841323505
 C          2.7122118863        1.0558856805       -1.9496508442
 C          3.8249509305        2.0318819879       -2.3170058677
 H          2.4907036349       -2.3325614989        0.6377571433
 H          0.7370352631       -2.1987772223        0.6580427849
 H          1.7088316423       -1.0759306324        1.5995591249
 H          0.8150001643       -0.0426914023       -0.4956529673
 H          1.5899144501       -1.2901745093       -1.4462010014
 H          4.0302084122        1.7011781111        0.4083658181
 H          3.3394290403        0.4492287409        1.4172417895
 H          1.7415299725        2.6979044485        0.1024852056
 H          2.2515724618        2.6231613112        1.7838707001
 H          1.0850337667        1.4587065246        1.1767908502
 H          4.3463245992       -1.2168115648        0.1150868870
 H          5.0766333683        0.0272942133       -0.8757786219
 H          4.2102465022       -1.0959764176       -2.9345533498
 H          3.4761881254       -2.3508684156       -1.9331198847
 H          5.2234666072       -2.1562516813       -1.9642456967
 H          1.7855900766        1.6194420936       -1.8223493919
 H          2.5509969743        0.3811696112       -2.7927862730
 H          4.7618149777        1.5144067545       -2.5048275256
 H          3.9850437493        2.7659409411       -1.5319055139
 H          3.5508939370        2.5674457392       -3.2241626736
 C         -3.4990285842       -1.9198416967       -1.2004593650
 C         -2.5309365417       -1.4616760651       -0.1148005176
 C         -2.9400376343       -0.2045906063        0.6817768134
 C         -3.0999998734        1.0159236948       -0.2492951394
 C         -1.8582623110        1.4454331786       -1.0237521883
 C         -4.3065413543       -0.4024986904        1.3711329905
 C         -4.4125979144       -1.5775833697        2.3375795462
 C         -1.8233400371        0.0289277648        1.7202018826
 C         -1.9742075428        1.2548308793        2.6144944856
 H         -4.4713028085       -2.1726287836       -0.7863201627
 H         -3.1014295808       -2.8085642085       -1.6873149695
 H         -3.6336289896       -1.1552666150       -1.9608577172
 H         -1.5591722401       -1.2755897617       -0.5760737624
 H         -2.3883342533       -2.2823823224        0.5913383127
 H         -3.4430130431        1.8617493433        0.3500750474
 H         -3.8959696874        0.7987241884       -0.9642285817
 H         -2.1059803748        2.2901947173       -1.6641353015
 H         -1.4874338318        0.6444794238       -1.6578617592
 H         -1.0622011617        1.7590963753       -0.3539009396
 H         -5.0672859477       -0.5205486262        0.5968515429
 H         -4.5533441316        0.5132000126        1.9121907336
 H         -3.7092800178       -1.4801974532        3.1602757339
 H         -4.2302446768       -2.5236938330        1.8351329810
 H         -5.4160384365       -1.6101633961        2.7582140991
 H         -0.8744105799        0.1027016765        1.1872428517
 H         -1.7527859164       -0.8568217674        2.3545309102
 H         -1.1349615761        1.3033040164        3.3062880812
 H         -2.8876900376        1.2090038978        3.2012394220
 H         -1.9808195991        2.1732220610        2.0334943579
