  58
        -58.96869145
 C          4.0027361667       -2.3196622626        0.9177548294
 C          2.9672583342       -1.2149264344        1.0999654962
 C          3.1674951818        0.0575814534        0.2499841958
 C          4.5376199087        0.7075863700        0.5357932790
 C          4.7972595608        1.1292108447        1.9782752783
 C          3.1530760871       -0.2730349319       -1.2574821292
 C          1.8845010622       -0.9273244741       -1.7944357402
 C          2.0116135053        1.0097887062        0.6215076143
 C          1.9871200942        2.3552708659       -0.0962777474
 H          4.0211825352       -2.6818844557       -0.1066303198
 H          3.7532006052       -3.1589242487        1.5645962504
 H          4.9997470957       -1.9785638482        1.1832639668
 H          2.9516380914       -0.9251761968        2.1526209895
 H          1.9810795741       -1.6256356785        0.8761874172
 H          4.6414075412        1.5851943531       -0.1054427455
 H          5.3191710927        0.0078514195        0.2331267136
 H          5.7900474915        1.5692137619        2.0535535578
 H          4.7567411692        0.2792265219        2.6540145970
 H          4.0770367324        1.8717797071        2.3110246247
 H          3.9991666547       -0.9287964760       -1.4724966850
 H          3.3271855585        0.6507553845       -1.8128531559
 H          1.6927673059       -1.8800206938       -1.3074784973
 H          1.9977365423       -1.1148242403       -2.8608698472
 H          1.0200144458       -0.2838548482       -1.6594960746
 H          2.0490793860        1.1918591812        1.6975350859
 H          1.0704150498        0.4936074217        0.4269284211
 H          1.1344446570        2.9368298443        0.2507531743
 H          1.8911895127        2.2309526788       -1.1715573846
 H          2.8858436913        2.9310646527        0.1074248884
 C         -4.8443325245       -1.7043718456        0.8427426609
 C         -3.9970340203       -1.3423225596       -0.3726940625
 C         -3.1510069971       -0.0579110083       -0.2517910786
 C         -4.0428749730        1.1733483134        0.0100355796
 C         -5.0927571384        1.4792658503       -1.0530948716
 C         -2.1731681386       -0.1487416452        0.9394638347
 C         -1.2559794682       -1.3671205407        0.9715348465
 C         -2.3851616117        0.0860864602       -1.5846472950
 C         -1.5593383136        1.3569872553       -1.7572483752
 H         -4.2302599514       -1.8494351847        1.7275030325
 H         -5.3779122922       -2.6331890639        0.6485565479
 H         -5.5814472824       -0.9345546173        1.0554968703
 H         -4.6574057031       -1.2402862878       -1.2361630709
 H         -3.3254648384       -2.1749733094       -0.5912335840
 H         -3.3966772591        2.0459055377        0.1244941577
 H         -4.5503634479        1.0342289957        0.9666197881
 H         -4.6364933905        1.6632562206       -2.0218810770
 H         -5.6473189478        2.3717010995       -0.7684892314
 H         -5.8033702570        0.6633904946       -1.1547645663
 H         -2.7540185242       -0.1314954715        1.8639755546
 H         -1.5553614677        0.7515065382        0.9453427119
 H         -1.8211907531       -2.2876630120        1.0894640999
 H         -0.5736132547       -1.2831929676        1.8157696896
 H         -0.6617737804       -1.4425903307        0.0647862479
 H         -3.1058704522        0.0305301187       -2.4031442699
 H         -1.7241951202       -0.7760065320       -1.6952384588
 H         -1.0211102251        1.3128443981       -2.7026889298
 H         -0.8293107362        1.4708630367       -0.9608601233
 H         -2.1896734126        2.2419570167       -1.7744371684
