  58
        -58.96863585
 C          2.3166989137       -2.3415492318       -0.3863613058
 C          1.7885427241       -0.9177373525       -0.2467364339
 C          2.8007028230        0.2186716135       -0.5020672954
 C          4.0049552967        0.1152882405        0.4570334769
 C          3.6849335270        0.1622774906        1.9475278999
 C          3.3758320407        0.1370915510       -1.9318701609
 C          2.3671025854        0.2288304657       -3.0724045404
 C          2.0321475802        1.5398654911       -0.2877636681
 C          2.8299731308        2.8253469729       -0.4788897005
 H          2.6788630626       -2.5341685004       -1.3926619947
 H          1.5132315492       -3.0466141570       -0.1796465656
 H          3.1217228169       -2.5386767383        0.3162272984
 H          1.3830090479       -0.7965842072        0.7599885787
 H          0.9549094541       -0.7922767259       -0.9398420844
 H          4.6991213913        0.9254897400        0.2253503123
 H          4.5333439514       -0.8163604892        0.2449813539
 H          3.1978242850        1.0945760849        2.2200497918
 H          4.6086959111        0.0882369662        2.5184840605
 H          3.0430577935       -0.6634617831        2.2422758285
 H          3.9228356433       -0.8029103147       -2.0280304184
 H          4.1091351148        0.9369429889       -2.0528949693
 H          2.8903550220        0.1553166188       -4.0240316348
 H          1.8348555826        1.1761388464       -3.0575454658
 H          1.6404967289       -0.5780215432       -3.0282250700
 H          1.6181609516        1.5368899090        0.7225390002
 H          1.1826020630        1.5580716048       -0.9733564771
 H          3.2230350923        2.9030581264       -1.4889730572
 H          3.6582543454        2.8873490277        0.2216877071
 H          2.1810359942        3.6820922553       -0.3058473150
 C         -3.0761660774       -2.8040958561        0.6982891391
 C         -2.2065059952       -1.5745597871        0.9385987745
 C         -2.8018868123       -0.2192412051        0.5020596192
 C         -3.1196701984       -0.2120438485       -1.0081435681
 C         -1.9424521640       -0.4501157699       -1.9478745644
 C         -4.1364200732        0.0622713670        1.2241758671
 C         -4.0870958273        0.0932757260        2.7481707974
 C         -1.7435356525        0.8470992672        0.8527069747
 C         -2.0875479383        2.2888255184        0.4941982787
 H         -2.5522514905       -3.6916196969        1.0488239504
 H         -3.2902831982       -2.9389286412       -0.3585398119
 H         -4.0174045721       -2.7375295640        1.2372237813
 H         -1.2568453020       -1.7155293077        0.4192442824
 H         -1.9725172190       -1.5183917599        2.0035936710
 H         -3.5734303366        0.7489497238       -1.2586930495
 H         -3.8775970415       -0.9733387031       -1.2028605217
 H         -1.1882044977        0.3250201429       -1.8415648799
 H         -2.2925246566       -0.4356063246       -2.9785803570
 H         -1.4794298601       -1.4165420379       -1.7665236564
 H         -4.8598926924       -0.6953725060        0.9162898128
 H         -4.5210993391        1.0211630586        0.8710302641
 H         -5.0815970015        0.3031745339        3.1378056112
 H         -3.4170968983        0.8693208842        3.1083395427
 H         -3.7637566067       -0.8610230397        3.1551315076
 H         -0.8124515688        0.5801387306        0.3516890945
 H         -1.5460385230        0.7948320438        1.9253261117
 H         -1.2640568565        2.9386806252        0.7849796504
 H         -2.9800922381        2.6270048157        1.0138037527
 H         -2.2433030994        2.4064599583       -0.5747887072
