  58
        -58.96864740
 C          1.6184327217       -1.7084251951       -0.5619934573
 C          2.2815981201       -0.6130250145       -1.3905494376
 C          3.2702890423        0.3062208274       -0.6425964332
 C          2.5633130647        1.0740787888        0.4944371899
 C          1.4391156365        2.0164651702        0.0769956579
 C          4.3951713237       -0.5132783276        0.0238171309
 C          5.2344855236       -1.3852433798       -0.9042523447
 C          3.8401022908        1.2768227650       -1.6981848648
 C          4.8437611300        2.3083203558       -1.1935976800
 H          2.3519678607       -2.4003001787       -0.1571002859
 H          0.9382406888       -2.2777350629       -1.1937928571
 H          1.0450547892       -1.2920814889        0.2612134042
 H          1.5010443635        0.0099467091       -1.8317622697
 H          2.8113360724       -1.0816397315       -2.2224985273
 H          3.3145272351        1.6515951660        1.0371730824
 H          2.1613685829        0.3458470523        1.2016347083
 H          1.8053751252        2.8130489365       -0.5649785822
 H          1.0057274555        2.4768412642        0.9636285130
 H          0.6496427398        1.4858630390       -0.4473259423
 H          3.9475649919       -1.1505365863        0.7891186973
 H          5.0607951810        0.1774606874        0.5451649872
 H          5.9889600821       -1.9113709358       -0.3221561863
 H          5.7475873874       -0.7883015987       -1.6533602072
 H          4.6250097769       -2.1284497408       -1.4110408755
 H          3.0052970026        1.8033314471       -2.1651070010
 H          4.3154184530        0.6881477875       -2.4853147846
 H          5.7249263223        1.8318773297       -0.7723840374
 H          4.4045330453        2.9544031232       -0.4384235694
 H          5.1671588496        2.9345280606       -2.0232280953
 C         -5.3638195002       -0.6320755312       -0.8677843280
 C         -4.1891791236       -1.2697525115       -0.1329174406
 C         -3.2674936251       -0.3058132596        0.6431403971
 C         -2.6594609730        0.7577715732       -0.2956838098
 C         -1.8912922120        0.2327729135       -1.5042587580
 C         -4.0540809803        0.4680752944        1.7217665690
 C         -4.7406452455       -0.3765314403        2.7900916101
 C         -2.1651761054       -1.1794014564        1.2789566619
 C         -1.1539149130       -0.4566770645        2.1628166724
 H         -6.0376682410       -0.1298846218       -0.1787193085
 H         -5.9299495013       -1.4048985714       -1.3849575494
 H         -5.0262469792        0.0877543880       -1.6085108487
 H         -3.5812400077       -1.8168620825       -0.8562556645
 H         -4.5804976393       -2.0104026029        0.5673682822
 H         -1.9925490897        1.3920762928        0.2915531974
 H         -3.4655509480        1.4021884983       -0.6526374353
 H         -1.4850838911        1.0722022068       -2.0667165776
 H         -2.5371224066       -0.3317443475       -2.1714492463
 H         -1.0643088021       -0.4043250915       -1.2037097723
 H         -4.8105072756        1.0782320559        1.2242860345
 H         -3.3692534105        1.1618786642        2.2135022630
 H         -4.0228877998       -0.9688934216        3.3511435227
 H         -5.4769676315       -1.0462564638        2.3538726498
 H         -5.2570537329        0.2765283152        3.4912773955
 H         -1.6252667753       -1.6873118073        0.4775040835
 H         -2.6459825688       -1.9599364242        1.8721047792
 H         -0.4232482264       -1.1730097878        2.5352734781
 H         -1.6338342048        0.0041374994        3.0218646748
 H         -0.6206906910        0.3124232436        1.6113227538
