  58
        -58.96882178
 C          2.4800295640       -2.0194883806       -1.7974852765
 C          1.8916852044       -1.1794155717       -0.6688813827
 C          2.7571102172       -0.0042680431       -0.1667386351
 C          4.1312473840       -0.4977700952        0.3326395499
 C          4.1103799766       -1.5166802193        1.4673102548
 C          3.0451798679        0.9984014607       -1.3042079450
 C          1.8306479647        1.6545446712       -1.9528990993
 C          1.9591904698        0.6630160466        0.9726641967
 C          2.6087484387        1.8699274383        1.6407473429
 H          2.6628641859       -1.4202464371       -2.6853866944
 H          1.7776122177       -2.8069930748       -2.0647649401
 H          3.4123576015       -2.4912578062       -1.4990642638
 H          1.6803945734       -1.8364364064        0.1772448536
 H          0.9312429430       -0.7811114229       -1.0003334785
 H          4.7102128516        0.3694596240        0.6564988388
 H          4.6680016713       -0.9315833994       -0.5133912760
 H          5.1317534135       -1.7849018166        1.7314717519
 H          3.5910067969       -2.4255732148        1.1757678913
 H          3.6313750543       -1.1128219402        2.3552315744
 H          3.6147384956        0.4817703107       -2.0791906275
 H          3.6950743794        1.7839474483       -0.9131661300
 H          2.1610893200        2.3151464332       -2.7525111600
 H          1.2721708276        2.2525809440       -1.2377792706
 H          1.1618513146        0.9154645448       -2.3853273951
 H          1.7577200696       -0.0896291429        1.7379144127
 H          0.9908638072        0.9705563442        0.5745291770
 H          2.7897004943        2.6691902828        0.9271049892
 H          3.5517631831        1.6047386831        2.1110993761
 H          1.9453744715        2.2549458688        2.4133961293
 C         -2.4212762293       -2.0594221253        1.7270234244
 C         -1.8621395079       -1.1695266923        0.6220422034
 C         -2.7569957796        0.0026259679        0.1667730669
 C         -4.1244366152       -0.5034689212       -0.3383604823
 C         -4.0914061440       -1.4796984328       -1.5096473061
 C         -3.0569513067        0.9596434555        1.3399416348
 C         -1.8514738324        1.6174441743        2.0036713543
 C         -1.9835562906        0.7250513552       -0.9558093433
 C         -2.6659470264        1.9380052569       -1.5787611989
 H         -2.6034506711       -1.4952423458        2.6377545798
 H         -1.7014572268       -2.8428269951        1.9576019757
 H         -3.3486769404       -2.5374331988        1.4233224225
 H         -1.6446648894       -1.7933858087       -0.2473112388
 H         -0.9075920394       -0.7617615555        0.9586476258
 H         -4.7257938621        0.3615115713       -0.6253448627
 H         -4.6433326298       -0.9797513391        0.4958753401
 H         -3.6346370717       -1.0312815345       -2.3878281398
 H         -5.1086522644       -1.7654380975       -1.7712607818
 H         -3.5446068016       -2.3842963850       -1.2576811668
 H         -3.6106831831        0.4052095480        2.1001664082
 H         -3.7250634716        1.7448878189        0.9802462504
 H         -1.1706081364        0.8777390421        2.4157673700
 H         -2.1908169115        2.2517090270        2.8207050820
 H         -1.3035265290        2.2425726432        1.3037502188
 H         -1.7713127644        0.0027246699       -1.7468938485
 H         -1.0190025731        1.0415012371       -0.5555085056
 H         -2.0184760705        2.3627093019       -2.3440152834
 H         -2.8582210872        2.7094649393       -0.8380130671
 H         -3.6070257895        1.6669958158       -2.0495905840
