  58
        -58.96876800
 C          2.8486910963       -2.7474138965        0.0782020355
 C          2.1870166754       -1.4144139317        0.4111558687
 C          2.8673828094       -0.1506807975       -0.1562481357
 C          4.3248336847       -0.0367118310        0.3378247803
 C          4.5208804543        0.0283404499        1.8489023417
 C          2.9360984462       -0.2006071999       -1.6974227760
 C          1.6045426008       -0.3137147755       -2.4327299490
 C          2.0231110025        1.0491281345        0.3224649315
 C          2.5113349921        2.4317027665       -0.0964554262
 H          2.8827919333       -2.9164445006       -0.9947231500
 H          2.2746727626       -3.5567663473        0.5260052095
 H          3.8608173701       -2.7992123705        0.4701848334
 H          2.1322510746       -1.3164505023        1.4974663801
 H          1.1587409816       -1.4440083966        0.0474246369
 H          4.7696905379        0.8548701263       -0.1085036097
 H          4.8857229466       -0.8901905962       -0.0482660122
 H          4.0194229648        0.8916582601        2.2778943148
 H          5.5828349173        0.1126929847        2.0726250823
 H          4.1472154116       -0.8677588031        2.3369973511
 H          3.5630829028       -1.0469886731       -1.9849233028
 H          3.4487677974        0.6979840295       -2.0465516258
 H          1.0740185309       -1.2213790404       -2.1586253732
 H          1.7864841799       -0.3444220067       -3.5055232461
 H          0.9623534462        0.5387235041       -2.2284141942
 H          1.9650891346        1.0169029339        1.4123941084
 H          1.0044566552        0.9196339713       -0.0476843317
 H          2.5386857729        2.5322647861       -1.1781351563
 H          3.5024209733        2.6403936403        0.2970593293
 H          1.8315837696        3.1879871016        0.2924259264
 C         -1.9351242057       -2.2464798201       -0.2601593184
 C         -1.8639916285       -0.7570561329       -0.5789604238
 C         -2.8721393851        0.1517354281        0.1535731293
 C         -4.3246899379       -0.2478371979       -0.1803515900
 C         -4.7198094053       -0.1895698589       -1.6522832396
 C         -2.7284121152        0.0205951168        1.6846113268
 C         -1.3553328363        0.3422916982        2.2656000184
 C         -2.5686859169        1.5917973139       -0.3117256329
 C         -3.4577213183        2.6893635841        0.2631270322
 H         -1.1851335427       -2.7783592415       -0.8435557266
 H         -2.9074157334       -2.6613259197       -0.5117013224
 H         -1.7370514527       -2.4377605154        0.7911016190
 H         -1.9979145006       -0.6248688871       -1.6545104614
 H         -0.8592482771       -0.4017104415       -0.3450503412
 H         -4.9974882351        0.3995430261        0.3855985625
 H         -4.4924996289       -1.2638078019        0.1827695358
 H         -5.7608882328       -0.4888104520       -1.7593423447
 H         -4.1154843553       -0.8641655120       -2.2528113630
 H         -4.6185066190        0.8158902969       -2.0517416800
 H         -2.9933225722       -1.0002543080        1.9673255950
 H         -3.4658065317        0.6742024987        2.1548145557
 H         -1.0598494683        1.3647454256        2.0464312258
 H         -0.5928092074       -0.3290007189        1.8808100134
 H         -1.3859351778        0.2284236780        3.3478045514
 H         -2.6397863170        1.6225296277       -1.4009600399
 H         -1.5311818816        1.8224775019       -0.0611098814
 H         -3.1453343361        3.6531965083       -0.1348531384
 H         -3.3817501889        2.7350500972        1.3461691626
 H         -4.4996854857        2.5389254355       -0.0058881174
