  58
        -58.96886344
 C          2.6627618993       -1.7917637970        1.7245261250
 C          1.9720431097       -0.6396836783        1.0029179052
 C          2.7465461202        0.0010370940       -0.1676086254
 C          4.1064272633        0.5570202181        0.3043245021
 C          4.0573169776        1.6236984643        1.3933049812
 C          3.0616650881       -1.0416061647       -1.2611004981
 C          1.8654119711       -1.7590810844       -1.8780789615
 C          1.8452205511        1.1268504061       -0.7172173706
 C          2.4031649163        1.9306604831       -1.8869580996
 H          2.8718092802       -2.6158432218        1.0477721465
 H          2.0128009167       -2.1644391494        2.5144031480
 H          3.5956239370       -1.4728803341        2.1815432218
 H          1.7457643804        0.1403412427        1.7330657427
 H          1.0146007028       -0.9984132848        0.6215152312
 H          4.6275868824        0.9694055955       -0.5619448366
 H          4.7123582545       -0.2772476497        0.6635001531
 H          3.5097440183        2.5026842471        1.0641818751
 H          5.0706315971        1.9342597685        1.6415154948
 H          3.5930023392        1.2449344810        2.2998492468
 H          3.7337427778       -1.7908574931       -0.8376758215
 H          3.6156753455       -0.5435015787       -2.0591355426
 H          2.2140247889       -2.4485653472       -2.6449384588
 H          1.1787472396       -1.0588106393       -2.3458040813
 H          1.3214385271       -2.3365091390       -1.1352709527
 H          1.6194842948        1.8154524427        0.0994977143
 H          0.8950000894        0.6869324390       -1.0239487161
 H          2.5957785352        1.2971958107       -2.7486319607
 H          3.3245377915        2.4399261883       -1.6176304187
 H          1.6780268690        2.6864552204       -2.1835336843
 C         -2.6622668408       -1.7726050549       -1.7438525035
 C         -1.9704751709       -0.6303643493       -1.0077550687
 C         -2.7462100755       -0.0010371717        0.1681279906
 C         -4.1055603644        0.5593960992       -0.2999306621
 C         -4.0548912066        1.6358103641       -1.3791943904
 C         -3.0623671671       -1.0541472269        1.2512972444
 C         -1.8668224440       -1.7769923168        1.8634102759
 C         -1.8455493815        1.1194242768        0.7296167024
 C         -2.4062643536        1.9138988782        1.9043997628
 H         -2.8766141941       -2.6030244429       -1.0765390567
 H         -2.0105868610       -2.1391697007       -2.5351852778
 H         -3.5923481876       -1.4458243646       -2.2010072703
 H         -1.7406280863        0.1572367413       -1.7286323623
 H         -1.0148157204       -0.9956706666       -0.6281471705
 H         -4.6274107262        0.9640663014        0.5695322763
 H         -4.7113366217       -0.2714391484       -0.6671796686
 H         -3.5061778764        2.5110240181       -1.0420136443
 H         -5.0677555171        1.9499603048       -1.6247614488
 H         -3.5908434853        1.2646150000       -2.2890157287
 H         -3.7333526523       -1.7997067754        0.8197231397
 H         -3.6179010726       -0.5639330685        2.0531619160
 H         -1.1814340461       -1.0809805638        2.3392584555
 H         -1.3211582032       -2.3469228308        1.1160706470
 H         -2.2165142338       -2.4740822240        2.6228612523
 H         -1.6170491860        1.8147319065       -0.0806453655
 H         -0.8964726781        0.6762479835        1.0352504669
 H         -1.6807523686        2.6656073035        2.2103332014
 H         -2.6033950150        1.2732010155        2.7597317511
 H         -3.3256299983        2.4274011895        1.6361417362
