  20
        -32.58482971
 O         -1.6978811071        1.3650707755        0.9407644511
 C         -1.6757695448        0.4428838001       -0.1243185307
 C         -0.8416228790       -0.8232521705        0.1714768940
 C         -1.5097767829       -1.6133940802        1.3237450708
 O         -1.5118383624       -0.9155492089        2.5344055534
 C         -0.8240594077       -1.7113148744       -1.0910642864
 O         -0.4910699683       -1.0397784144       -2.2721061090
 C          0.5669046272       -0.4885688281        0.6580611365
 Br         1.5131370672        0.8541404166       -0.4124294644
 H         -0.8809035324        1.8772496481        0.9317705481
 H         -1.3155196884        0.9110595798       -1.0468411218
 H         -2.7145497977        0.1430748525       -0.2877807370
 H         -0.9619041509       -2.5429798445        1.5068527280
 H         -2.5336209206       -1.8741459408        1.0186496635
 H         -1.9054900466       -0.0425490886        2.3711718158
 H         -1.8301425243       -2.1047264914       -1.2597458050
 H         -0.1513598622       -2.5650900069       -0.9179299089
 H          0.4131183724       -0.7048597198       -2.2179536097
 H          1.1971092345       -1.3779467572        0.6521519489
 H          0.5272173981       -0.0885638530        1.6718621594
