  20
        -32.58546748
 O         -1.5035274701        1.6064253440       -1.0754255079
 C         -1.5445996554        0.9316982484        0.1578132151
 C         -0.9581360764       -0.4956179187        0.0997459132
 C         -0.9315923653       -1.0733847612        1.5206882793
 O         -0.4477745267       -2.3950813334        1.4719543044
 C         -1.8502781850       -1.3805054259       -0.8037338796
 O         -1.8681037241       -0.9595183479       -2.1369323451
 C          0.4418019429       -0.5284181291       -0.5028831556
 Br         1.6445615816        0.8036476384        0.2604822521
 H         -0.6009824536        1.9066557704       -1.2378828350
 H         -2.6026079802        0.8685089374        0.4286611931
 H         -1.0320294124        1.5111822369        0.9359222287
 H         -1.9477002869       -1.0448477391        1.9387472132
 H         -0.2841971111       -0.4476928866        2.1531801619
 H         -0.4429023494       -2.7604024939        2.3620685335
 H         -2.8661095733       -1.3920778625       -0.3806782397
 H         -1.4652259343       -2.4028236344       -0.8034720873
 H         -2.0983877120       -0.0168945882       -2.1494282782
 H          0.4067339511       -0.3399705988       -1.5756496187
 H          0.8965740532       -1.4994326175       -0.3150973365
