  20
        -32.58552658
 O         -2.4280427674        1.6637976346       -0.5648936238
 C         -2.1542317886        0.9236792988        0.5902030127
 C         -0.8890929856        0.0415164178        0.4584526143
 C         -0.6255566178       -0.6767718498        1.7885049219
 O         -1.7252979252       -1.5005558968        2.0919264397
 C         -1.1233787989       -1.0256636300       -0.6341294893
 O         -1.3028338038       -0.4889582619       -1.9237116326
 C          0.2662228941        0.9736919799        0.1174027057
 Br         1.9176131209        0.0365928375       -0.3331827372
 H         -2.4701150135        1.0417343328       -1.3087645563
 H         -2.9945406590        0.2699336736        0.8571861601
 H         -2.0154917269        1.6534645674        1.3938211218
 H         -0.4747976652        0.0725562500        2.5805744874
 H          0.2920954339       -1.2772664812        1.7004716407
 H         -1.5506697012       -1.9657073684        2.9163638067
 H         -2.0431080232       -1.5629162064       -0.3924153543
 H         -0.2975485100       -1.7470206699       -0.6236452765
 H         -0.4431925897       -0.2444256722       -2.2854252147
 H          0.5061895396        1.6172213187        0.9632182636
 H          0.0146369915        1.5940854408       -0.7428211959
