  20
        -32.58532410
 O         -2.7203530138        0.6670387989        0.1747472359
 C         -1.3206439184        0.7696505441        0.1257539258
 C         -0.6163594942       -0.6061582324        0.1768308962
 C         -1.3864920444       -1.5362455523        1.1501240595
 O         -1.6875953047       -0.9252458228        2.3708521351
 C         -0.6097314678       -1.2494930097       -1.2257680592
 O         -1.8717971679       -1.1605749025       -1.8562268898
 C          0.8000799536       -0.4605549843        0.7104188373
 Br         1.8596785566        0.8333109572       -0.2901198589
 H         -2.9978025358        0.0650554379       -0.5312600533
 H         -1.0341236842        1.3684246984        0.9951321051
 H         -0.9993219144        1.3141579177       -0.7746824901
 H         -0.7673988267       -2.4066698440        1.3850285826
 H         -2.2957256469       -1.8897030907        0.6472800883
 H         -2.3450591158       -0.2368367205        2.1987396709
 H         -0.3793167555       -2.3162767507       -1.1323854514
 H          0.1647106272       -0.7836563632       -1.8436538465
 H         -1.8803707446       -0.4013620539       -2.4478635074
 H          1.3427423541       -1.4034678500        0.6472394218
 H          0.7825312292       -0.1136077756        1.7429859075
