  20
        -32.58493247
 O         -2.5529394208        1.7149624930        0.1176687447
 C         -1.2090171835        1.4529831018       -0.1847476229
 C         -0.8910711365       -0.0503767114       -0.3356942436
 C         -1.1844125432       -0.7438703928        1.0033721536
 O         -1.0405756516       -2.1460268299        0.8676838095
 C         -1.7792805492       -0.6550361971       -1.4515687173
 O         -1.3910284853       -1.9356386107       -1.8538275990
 C          0.5599186399       -0.2538552944       -0.7556446144
 Br         1.8371579294        0.5406047196        0.4750841537
 H         -3.0978118900        1.5477803289       -0.6586065545
 H         -0.6424753110        1.8635954786        0.6555042187
 H         -0.9011811379        1.9791870331       -1.0991927351
 H         -2.2081723699       -0.4883108295        1.3081885286
 H         -0.4955794910       -0.3592812692        1.7666469408
 H         -1.1577083786       -2.5537746548        1.7305718564
 H         -1.7170739323       -0.0294998777       -2.3487572506
 H         -2.8227748052       -0.6644418905       -1.1003096031
 H         -1.3523120241       -2.4881104650       -1.0588626757
 H          0.7492797543        0.2007191070       -1.7274101922
 H          0.7966526920       -1.3156660499       -0.7971513750
