  20
        -32.58559816
 O         -2.6337251116        1.7638968475        0.0621932182
 C         -1.2823870766        1.5554668179       -0.2464354197
 C         -0.9092460837        0.0711877849       -0.4406751413
 C         -1.2052184946       -0.7058699880        0.8632987050
 O         -0.7627041522       -2.0413510909        0.8438336515
 C         -1.7517767848       -0.5268951732       -1.5925406850
 O         -1.4261874856       -1.8575521449       -1.8771853282
 C          0.5527447578       -0.0484256863       -0.8539583107
 Br         1.8043964747        0.3830140311        0.5827586120
 H         -2.8058980371        1.4922379825        0.9698075911
 H         -0.6330597852        1.9951490601        0.5239239353
 H         -1.1149182126        2.0920801968       -1.1848767402
 H         -2.2891739258       -0.7629590381        1.0025286039
 H         -0.7732820813       -0.1684922680        1.7183355562
 H          0.1923604211       -2.0605259404        0.9768737384
 H         -1.5707025646        0.0348097194       -2.5134168746
 H         -2.8139898037       -0.4203916124       -1.3322653584
 H         -1.4768211012       -2.3635270449       -1.0512934546
 H          0.7792687910        0.6382031003       -1.6685727441
 H          0.7804869714       -1.0668184026       -1.1696759191
