%nprocshared=4
%mem=8000mb
%chk=20.chk
%nprocshared=4
%mem=8000mb
#T wB97XD/def2svpp opt=tight freq int(grid=ultrafine) scf=(verytight,qc) Volume=tight

Monomer

0 1
O        2.955012    0.971201   -0.074116
C        1.636719    1.457893   -0.005361
C        0.565137    0.336586   -0.010491
C        0.727283   -0.536163   -1.274018
O        1.948112   -1.239822   -1.310294
C        0.709668   -0.522847    1.264595
O        2.001377   -1.073041    1.415923
C       -0.783813    1.057517   -0.028600
Br       -2.356389   -0.096362    0.004813
H        3.061252    0.367418    0.687551
H        1.497005    2.108723   -0.886115
H        1.498668    2.089574    0.896900
H        0.613399    0.103667   -2.174252
H       -0.072411   -1.293510   -1.307668
H        2.655562   -0.569175   -1.266198
H       -0.056715   -1.321073    1.263388
H        0.530026    0.104346    2.155286
H        2.156297   -1.626482    0.626953
H       -0.888697    1.666873   -0.938884
H       -0.886754    1.717667    0.845734


