  26
        -50.00942953
 C          2.0693128855       -1.4420800509        1.2224657871
 C          2.6352270312       -0.3944930639        0.2909527579
 C          4.1242624701       -0.1701201257        0.4315675810
 Cl         2.2279494514       -0.8009712714       -1.4277222629
 N          1.9031472335        0.9036907571        0.4485951328
 O          2.4770625067        1.9146142869        0.1440353050
 O          0.7613839893        0.8542940117        0.8431477442
 H          1.0059872227       -1.5927303628        1.0461039731
 H          2.2144864480       -1.1353127882        2.2566004387
 H          2.5822906149       -2.3849635526        1.0585998618
 H          4.4512505940        0.6379103132       -0.2176262789
 H          4.6564372809       -1.0769278823        0.1609130703
 H          4.3641054092        0.0868607104        1.4616918942
 C         -2.1383582358        1.8811756372       -0.1812251838
 C         -2.3274396845        0.4786953897        0.3451243907
 C         -2.2395149767        0.3582931064        1.8476791937
 Cl        -3.9021950496       -0.1980597389       -0.2405073428
 N         -1.3494978349       -0.4530153559       -0.3060515640
 O         -0.9748221528       -0.1802362356       -1.4154533720
 O         -1.0343357273       -1.4425316411        0.3061487474
 H         -1.1683495199        2.2511497617        0.1438737043
 H         -2.9176812561        2.5303497346        0.2067222674
 H         -2.1732494666        1.8916890292       -1.2676424959
 H         -2.3714718457       -0.6746405947        2.1586859219
 H         -3.0065780855        0.9710318335        2.3116467454
 H         -1.2585036975        0.7012939969        2.1684303107
