  26
        -50.00962873
 C          1.5475538997       -0.5296359426       -1.7255740061
 C          2.2099573045       -0.4836146680       -0.3701290985
 C          2.3388266881       -1.8268799826        0.3082366823
 Cl         3.8330459017        0.3099975059       -0.5009647452
 N          1.4906599895        0.4714008052        0.5340035141
 O          0.8130455568        1.3266739988        0.0171638911
 O          1.6615780794        0.3547682918        1.7173324359
 H          1.4584437876        0.4685990317       -2.1464106823
 H          0.5537103865       -0.9577637368       -1.6171616229
 H          2.1325665505       -1.1484011090       -2.3994134328
 H          1.3462489722       -2.2573680914        0.4242553969
 H          2.7921137068       -1.7174998142        1.2902127396
 H          2.9507546526       -2.4899534089       -0.2960313601
 C         -2.3123880859        1.7689194852        0.4847443437
 C         -2.6605533694        0.3438162672        0.0855259814
 C         -4.1118475767       -0.0195685474        0.3405801376
 Cl        -2.2421557712        0.0632146850       -1.6259656211
 N         -1.7882280726       -0.5565172256        0.9185343543
 O         -0.8419430444       -1.0909292950        0.4005025149
 O         -2.0957629379       -0.6519436289        2.0768283034
 H         -1.2636256466        1.9778584538        0.2779088474
 H         -2.5021389050        1.9039301163        1.5479968369
 H         -2.9250291713        2.4676203350       -0.0782331894
 H         -4.3232435913       -1.0303298553       -0.0018356779
 H         -4.7606382541        0.6708519409       -0.1907841208
 H         -4.3197186958        0.0441347685        1.4067074735
