  26
        -50.00962738
 C          2.3440968410       -0.8049060749       -1.6634539672
 C          2.2213085232       -0.5397197881       -0.1816219733
 C          1.5843002763       -1.6608582407        0.6027333280
 Cl         3.8427594783       -0.1376123091        0.5190680688
 N          1.4808773974        0.7445373815        0.0411830001
 O          1.6335263091        1.6227178362       -0.7641688234
 O          0.8057320951        0.8340711382        1.0381834025
 H          2.7774479901        0.0532731035       -2.1708493178
 H          1.3518093581       -0.9904798762       -2.0695779815
 H          2.9714071924       -1.6748640772       -1.8334453939
 H          1.4956053790       -1.3959825790        1.6532276361
 H          2.1862374780       -2.5601701101        0.5127071015
 H          0.5918269943       -1.8517356127        0.2010759905
 C         -4.1206083229        0.1795566177       -0.1838231860
 C         -2.6656710254        0.2192794316        0.2460665335
 C         -2.3300266668        1.4001816237        1.1429930265
 Cl        -2.2122498278       -1.3102708809        1.0447008229
 N         -1.8067445951        0.3609623887       -0.9818559005
 O         -0.8469652952       -0.3552321450       -1.1058253779
 O         -2.1378991424        1.2232639097       -1.7514546838
 H         -4.3230238356       -0.7060009760       -0.7823852517
 H         -4.3489748069        1.0653295006       -0.7730135953
 H         -4.7607372051        0.1605892257        0.6935317608
 H         -1.2777132726        1.3798370632        1.4232316553
 H         -2.9325483529        1.3577673529        2.0460814866
 H         -2.5426557924        2.3279598218        0.6150478061
