  26
        -50.00909819
 C          2.1320760150       -1.7173260234        0.7751648628
 C          2.6519187528       -0.4245052813        0.1694282332
 C          4.1574696018       -0.2891705322        0.2241325790
 Cl         2.0666303063       -0.2568722248       -1.5277838121
 N          2.0059296441        0.7084561306        0.9105668777
 O          0.8106020365        0.8332371235        0.7967429104
 O          2.7082800790        1.4066076050        1.5922373544
 H          1.0449121843       -1.7607105325        0.7242361078
 H          2.4432145758       -1.7907893761        1.8158770399
 H          2.5370891423       -2.5631764258        0.2271090896
 H          4.4739133694        0.6642397987       -0.1909216732
 H          4.6125176985       -1.0904758281       -0.3501161480
 H          4.5002202117       -0.3498131100        1.2545798192
 C         -2.0218801055        1.8362219743       -0.3985285287
 C         -2.3095181300        0.4831668846        0.2084081056
 C         -2.2229303078        0.4453407824        1.7147822061
 Cl        -3.9323517754       -0.1111538492       -0.3333717143
 N         -1.3996373923       -0.5449856094       -0.3955784939
 O         -1.0470310642       -1.4589155460        0.3077943872
 O         -1.1132601584       -0.4175150318       -1.5556231445
 H         -2.0498424598        1.7813141123       -1.4839321779
 H         -1.0301015614        2.1552761724       -0.0850315088
 H         -2.7564648363        2.5601130347       -0.0585563798
 H         -2.4230150614       -0.5553114923        2.0886301705
 H         -2.9441807531        1.1359120971        2.1414379624
 H         -1.2203053560        0.7412247366        2.0149542893
