  26
        -50.00703104
 C          1.8230861624       -1.9046255869       -0.1408300072
 C          2.4292743456       -0.5222941360       -0.0867716460
 C          3.9147938789       -0.4987872635        0.1947684288
 Cl         2.0819469851        0.3676756139       -1.6247236785
 N          1.7023669822        0.3365417004        0.9074608935
 O          0.5439739535        0.0793634956        1.1217268385
 O          2.3070711170        1.2511365911        1.4023637635
 H          0.7570625084       -1.8583810298       -0.3559032236
 H          1.9641899835       -2.4067718728        0.8144748172
 H          2.3084734299       -2.4851300857       -0.9198788200
 H          4.2738784238        0.5242736150        0.2738544093
 H          4.4470886467       -0.9991864340       -0.6088493154
 H          4.1202300906       -1.0157781388        1.1302934293
 C         -2.3586698970        1.3285171374        1.3631540932
 C         -2.4468399634        0.4175578342        0.1568448018
 C         -3.8681977541        0.2258049052       -0.3552986569
 Cl        -1.4069713323        1.0164980407       -1.1613761846
 N         -1.9553699191       -0.9568667434        0.5229753847
 O         -2.2807519855       -1.3612206865        1.6080886195
 O         -1.3514559527       -1.5851512001       -0.3045334367
 H         -2.7362156000        2.3145486298        1.1080165589
 H         -1.3256491392        1.4141633975        1.6900426709
 H         -2.9493764968        0.9152063265        2.1771289999
 H         -3.8786059021       -0.4370290428       -1.2184809800
 H         -4.2852397470        1.1854568039       -0.6490104550
 H         -4.4855252345       -0.2022751429        0.4327200409
