  26
        -50.00946527
 C          2.1526930206       -1.8364599578       -0.3733342192
 C          2.5858527830       -0.4222816409       -0.0188283358
 C          4.0411798808       -0.3271461852        0.4015137576
 Cl         2.2534439941        0.6868938602       -1.3788014542
 N          1.7271225025        0.0138085690        1.1370089851
 O          0.8203015229        0.7790866891        0.9302624778
 O          1.9996645311       -0.4679879073        2.2043373311
 H          1.1303627528       -1.8444069208       -0.7455503520
 H          2.2182470400       -2.4706763116        0.5088828251
 H          2.8024413901       -2.2337301267       -1.1482421323
 H          4.3141917749        0.7039471642        0.6146657160
 H          4.6766708787       -0.6967282407       -0.3978937797
 H          4.2020154350       -0.9288370812        1.2935948464
 C         -1.7658133708        1.8076415124       -0.7232632099
 C         -2.2337830639        0.6175161855        0.0805090741
 C         -2.3583364684        0.8732238136        1.5628158351
 Cl        -3.8019809599       -0.0044460378       -0.5790858205
 N         -1.3304623750       -0.5494471437       -0.1685845184
 O         -0.8290284107       -0.6442468217       -1.2609545042
 O         -1.1821292334       -1.3484008743        0.7204571995
 H         -2.4760099357        2.6231203315       -0.6245852935
 H         -1.6668808696        1.5454701669       -1.7736291932
 H         -0.7963119911        2.1258983772       -0.3456253791
 H         -2.6779868917       -0.0253624526        2.0841383457
 H         -3.0801429768        1.6647625938        1.7405739425
 H         -1.3881589928        1.1772982412        1.9500198939
