  26
        -50.00986728
 C          2.2249298373       -1.2945152589       -1.2333601615
 C          2.4744338025       -0.5591149475        0.0616986312
 C          2.4367356727       -1.4299703242        1.2948561965
 Cl         4.0483431236        0.3337458320       -0.0254133048
 N          1.5076571582        0.5741458745        0.2090981128
 O          1.0433801147        1.0483494281       -0.7963590867
 O          1.2769493060        0.9725063757        1.3227104178
 H          2.2226210129       -0.6053998743       -2.0740558531
 H          1.2570592438       -1.7886837791       -1.1838255617
 H          2.9977194187       -2.0415936733       -1.3878338887
 H          2.6252944501       -0.8392980872        2.1873985227
 H          3.1874004241       -2.2107452763        1.2182896033
 H          1.4499986538       -1.8812915787        1.3746008239
 C         -1.8472674571        1.6424230491        0.3917306908
 C         -2.5283690315        0.2848050391        0.3238405526
 C         -2.9051410446       -0.2616140764        1.6882774533
 Cl        -3.9637251928        0.3625002592       -0.7398400759
 N         -1.5541336793       -0.6557459135       -0.3248936727
 O         -1.7008763425       -0.9597349301       -1.4732719269
 O         -0.6392906600       -1.0274219514        0.3777502392
 H         -1.5163467390        1.9599181575       -0.5951759179
 H         -0.9840821716        1.5893873084        1.0537791948
 H         -2.5435719014        2.3788809500        0.7828202567
 H         -3.4168007145       -1.2169599691        1.5951020016
 H         -3.5648586055        0.4399853397        2.1900981717
 H         -2.0059870931       -0.3943710257        2.2864741867
