  26
        -50.00863474
 C          1.8006008460       -1.3530621472       -1.1937454449
 C          2.3619935820       -0.4458261120       -0.1122168534
 C          2.1428893712       -0.9707269232        1.2956927195
 Cl         4.1034368682       -0.1500514840       -0.3975334507
 N          1.6629000870        0.8798380896       -0.2298328124
 O          2.2863775385        1.8550622163       -0.5370411309
 O          0.4746297474        0.8554370080       -0.0028074335
 H          1.9860372588       -0.9356155854       -2.1812006940
 H          0.7270897449       -1.4766409196       -1.0550165766
 H          2.2762832741       -2.3276976611       -1.1331546825
 H          2.5980624819       -0.3079423954        2.0285388455
 H          2.5922778248       -1.9549797337        1.3899321991
 H          1.0773078348       -1.0486563764        1.5056229940
 C         -2.3732713333        1.5202303116        1.1716799563
 C         -2.7686908220        0.2368116067        0.4689282459
 C         -4.0055099041       -0.4219945128        1.0648786394
 Cl        -3.0070300644        0.5222014254       -1.2751199184
 N         -1.6566794691       -0.7596196630        0.6091681814
 O         -1.2006591324       -0.8854361538        1.7193508057
 O         -1.3266280994       -1.4072746287       -0.3465185410
 H         -1.4732824099        1.9295382951        0.7201531551
 H         -2.1770680175        1.3148137902        2.2214559602
 H         -3.1771641332        2.2457128418        1.0903614131
 H         -4.2552565216       -1.3324028837        0.5238024491
 H         -4.8482300268        0.2608156757        1.0023396370
 H         -3.8212457077       -0.6644608112        2.1100537016
