  26
        -50.00982809
 C          2.9004992986       -0.1600582438       -1.9040376107
 C          2.5207861481       -0.3353012843       -0.4443624901
 C          1.8530672817       -1.6700629049       -0.1569052315
 Cl         3.9501254928       -0.1147761591        0.6051301497
 N          1.5355035756        0.7368276709       -0.0789296217
 O          1.7209342442        1.4102473374        0.8931037468
 O          0.5765565253        0.8327353690       -0.8140063372
 H          3.4071999141        0.7896649926       -2.0608992430
 H          2.0024924790       -0.1925265235       -2.5177820695
 H          3.5658322534       -0.9638567748       -2.2050938300
 H          1.5392626088       -1.7293664051        0.8834580821
 H          2.5508811552       -2.4772232366       -0.3605772469
 H          0.9787479703       -1.7903275494       -0.7952414636
 C         -2.6043425094        0.9611753012       -1.4367883970
 C         -2.4757314801        0.4921975857       -0.0070510165
 C         -2.1055771720        1.5752765211        0.9779830946
 Cl        -4.0017902174       -0.3289780293        0.5208311318
 N         -1.4973259493       -0.6385832041        0.0710841859
 O         -0.9014812530       -0.7914950586        1.1074024348
 O         -1.3894210119       -1.3534460288       -0.8921706122
 H         -2.8709268423        0.1335910573       -2.0888497642
 H         -1.6481954785        1.3677646482       -1.7597422407
 H         -3.3675899483        1.7304301027       -1.5058364852
 H         -1.1654549186        2.0312468196        0.6753446582
 H         -1.9877676356        1.1641810710        1.9773747240
 H         -2.8793498164        2.3369676766        0.9957800179
