  26
        -50.01154825
 C          2.0648846938       -0.4801028561       -1.5519774092
 C          2.4344130573       -0.3767407733       -0.0845279759
 C          2.0025115797       -1.5795445455        0.7397797204
 Cl         4.1966407579       -0.1127748080        0.0939339142
 N          1.7516641468        0.8202719785        0.5112127534
 O          0.5621333462        0.9036553004        0.2952130291
 O          2.3816970167        1.5912411523        1.1767868050
 H          2.4044988585        0.3976200654       -2.0973583577
 H          0.9857250177       -0.5714375691       -1.6657288202
 H          2.5361123337       -1.3594998389       -1.9809537957
 H          2.3063997247       -1.4628998926        1.7780056407
 H          2.4663511502       -2.4769222050        0.3404186121
 H          0.9199642702       -1.6954879553        0.6974978070
 C         -2.3733582423        1.6622070304       -0.8523269690
 C         -2.5459640923        0.4595253496        0.0439878326
 C         -2.4256257144        0.7589002334        1.5189618978
 Cl        -4.1271753111       -0.3554691026       -0.3001827012
 N         -1.5769814122       -0.6109232092       -0.3447237440
 O         -1.2149402736       -0.6500602271       -1.4926339567
 O         -1.2436740890       -1.4002971023        0.5029165435
 H         -3.1310016156        2.4054845687       -0.6229965697
 H         -2.4566486719        1.3784251998       -1.8980967857
 H         -1.3868582433        2.0868276949       -0.6794900245
 H         -2.5316551268       -0.1491976248        2.1066146210
 H         -3.1931815127        1.4671474286        1.8159711331
 H         -1.4454655620        1.1905629620        1.7092708625
