  26
        -50.00945090
 C          2.0256217021       -1.7213398701       -0.5898931983
 C          2.6383364670       -0.4682763169        0.0169816596
 C          3.9997476762       -0.7026661970        0.6387319269
 Cl         2.7262340347        0.8297184344       -1.2142155832
 N          1.6783013823        0.0053762996        1.0714202945
 O          0.7748033006        0.7277399471        0.7316225427
 O          1.8517901214       -0.4065585395        2.1869359590
 H          1.0873758706       -1.4889626760       -1.0909551497
 H          1.8405577487       -2.4574457910        0.1907108815
 H          2.7096357084       -2.1438541012       -1.3208274018
 H          4.3923434570        0.2169850498        1.0663037276
 H          4.6897618094       -1.0562595967       -0.1217614497
 H          3.9216824901       -1.4497033085        1.4252323027
 C         -1.8836397154        1.8146073876       -0.7293793058
 C         -2.3119962807        0.6092155845        0.0735653089
 C         -2.3702827261        0.8379076975        1.5644966005
 Cl        -3.9079993743       -0.0047999924       -0.5241746836
 N         -1.4193294805       -0.5508596920       -0.2379819615
 O         -0.9567092311       -0.6147835287       -1.3498515805
 O         -1.2425438160       -1.3742840529        0.6223757719
 H         -1.8455204557        1.5753115408       -1.7889915000
 H         -0.8919476091        2.1190227281       -0.4014906711
 H         -2.5823784909        2.6308929341       -0.5727512414
 H         -2.6589346868       -0.0723603994        2.0836602799
 H         -3.0891669491        1.6201095793        1.7893767496
 H         -1.3862136155        1.1435528635        1.9131033121
