  26
        -50.00750464
 C          2.1221364826       -1.9146988014       -0.6348399388
 C          2.4495743458       -0.5638904580       -0.0243063114
 C          3.8219455949       -0.5153003321        0.6297443056
 Cl         2.2983266607        0.7307134003       -1.2426044671
 N          1.4398675610       -0.2905423746        1.0571180055
 O          0.7800988946        0.7123488703        1.0034190110
 O          1.3885614671       -1.1142999712        1.9338233929
 H          1.1349734432       -1.8909069393       -1.0906867303
 H          2.1362329227       -2.6752450393        0.1431243595
 H          2.8583606647       -2.1626356097       -1.3938906642
 H          4.0236636819        0.4758069299        1.0307381683
 H          4.5854539485       -0.7543609753       -0.1050556674
 H          3.8634472740       -1.2435241802        1.4377223320
 C         -3.8439505193        0.4689904041       -0.5756002010
 C         -2.4541633851        0.5521136671        0.0364980299
 C         -2.1443553428        1.9091171246        0.6429234179
 Cl        -2.2311141255       -0.7428344552        1.2439520456
 N         -1.4691732536        0.3118298686       -1.0754254721
 O         -0.7709065262       -0.6654444608       -1.0390611719
 O         -1.4743851604        1.1345443067       -1.9545434996
 H         -4.0318250348       -0.5262506002       -0.9730117043
 H         -3.9290728280        1.1974268358       -1.3799235943
 H         -4.5906046602        0.6865261969        0.1828171459
 H         -1.1428770819        1.9106894945        1.0673201251
 H         -2.8624227724        2.1337458994        1.4262400706
 H         -2.2041388851        2.6720653109       -0.1305275672
