  14
        -20.78583287
 C         -2.0744202781        1.0690281526       -0.0391169086
 C         -1.5654721943       -0.2990328451        0.3986559732
 C         -0.4051599840       -0.8103100397       -0.4616831031
 C          0.9517539343       -0.2658674699       -0.0922562009
 O          0.9359063835        1.0129662188        0.3031149766
 O          1.9737156571       -0.8971001149       -0.1532281931
 H         -2.8972786512        1.3842081561        0.5981502754
 H         -2.4322985063        1.0306827969       -1.0659788175
 H         -1.2839160601        1.8101071771        0.0258720743
 H         -2.3828883882       -1.0197586580        0.3281405176
 H         -1.2509605628       -0.2565242775        1.4427553208
 H         -0.5828271442       -0.5456788947       -1.5078182209
 H         -0.3301827237       -1.8975503232       -0.4050642627
 H          1.8354206666        1.3039854846        0.5212808160
