%nprocshared=4
%mem=8000mb
%chk=32.chk
%nprocshared=4
%mem=8000mb
#T wB97XD/def2svpp opt=tight freq int(grid=ultrafine) scf=(verytight,qc) Volume=tight

Monomer

0 1
 C         -2.8136025137        0.2289965400        0.0002151924
 C         -1.4461753486       -0.4407338051       -0.0005830442
 C         -0.3205349765        0.5887861269        0.0002425057
 C          1.0410626492       -0.0537865904        0.0000756040
 O          2.0184855555        0.8671960314       -0.0001966983
 O          1.2710000324       -1.2318999649        0.0002259431
 H         -2.9348887733        0.8546921462       -0.8814556555
 H         -2.9342975893        0.8537257975        0.8826536459
 H         -3.6020915907       -0.5190721357        0.0000709168
 H         -1.3444363895       -1.0782118524       -0.8801652482
 H         -1.3441757818       -1.0798590135        0.8777741648
 H         -0.3841895718        1.2343068688        0.8794641131
 H         -0.3839337542        1.2355943674       -0.8780332853
 H          2.8874720399        0.4358621902       -0.0001801147



