  19
        -32.07414278
 C          0.2525389351       -1.3309806653       -1.0908259805
 C         -0.3182868830       -0.3041176315       -0.1058711438
 C         -1.5774722386        0.3607487167       -0.7088052224
 O         -1.3305283482        1.0276412579       -1.9116076630
 C         -0.6992550655       -0.9849084144        1.2313479807
 O          0.2755832078       -1.8449594123        1.7399829391
 C          0.7285840352        0.7639582500        0.1481490064
 O          1.8049557080        0.3053053290        0.8040340004
 O          0.6435508901        1.9186559213       -0.1841878150
 H          0.4068327410       -0.8627120429       -2.0601372671
 H         -0.4565141154       -2.1465968106       -1.2052967121
 H          1.1928040435       -1.7364635124       -0.7273481977
 H         -2.0104811046        1.0441171669        0.0366507657
 H         -2.3125866198       -0.4142341147       -0.9378171317
 H         -0.7243368844        1.7580749809       -1.7210262619
 H         -1.5836625953       -1.6051352511        1.0651015093
 H         -0.9601152176       -0.2057881696        1.9658363617
 H          1.1088511084       -1.3611763800        1.8086357170
 H          2.4503309943        1.0201410236        0.9286663474
