  19
        -32.07376838
 C          0.2661636091       -1.4438378225       -0.9361945436
 C         -0.3164330599       -0.3024179918       -0.0915389226
 C         -1.4657484903        0.3898451101       -0.8530610690
 O         -1.1344505360        0.7907436118       -2.1520746243
 C         -0.8586458773       -0.8633526529        1.2493710597
 O          0.0662684758       -1.6316248061        1.9534540953
 C          0.8170220776        0.6483467674        0.2432867252
 O          0.8021920499        1.7995222359       -0.4403494224
 O          1.6785500876        0.4154731229        1.0546463087
 H         -0.5040483214       -2.1924448570       -1.1013497985
 H          1.1008591372       -1.9093155210       -0.4187747864
 H          0.5978891771       -1.0669324165       -1.9006227835
 H         -1.8324955499        1.2404603451       -0.2600431114
 H         -2.2835994665       -0.3257336548       -0.9682084725
 H         -0.4494011199        1.4677208129       -2.0943008868
 H         -1.7058319387       -1.5216781849        1.0406554981
 H         -1.2198238932       -0.0211361894        1.8630038675
 H          0.8809878762       -1.1120012669        2.0439390020
 H          1.5546854962        2.3547254770       -0.1773730443
