  19
        -32.07358708
 C          0.3527363438       -1.3064346419       -1.0430762711
 C          0.0484534336       -0.1076329391       -0.1371681484
 C         -1.1165744677        0.7372812671       -0.6946889567
 O         -2.3207113610        0.0190467239       -0.8243354684
 C         -0.2966869307       -0.6120382078        1.2890879542
 O         -1.3857766527       -1.4855148518        1.3034048428
 C          1.2688443758        0.7866608114       -0.0332801809
 O          2.3480242142        0.1323431542        0.4075737617
 O          1.2930934438        1.9591250515       -0.2971024089
 H         -0.4386676405       -2.0472483597       -0.9459925399
 H          1.2860025785       -1.7714634072       -0.7378268075
 H          0.4385631973       -0.9941908512       -2.0824847602
 H         -0.8152473275        1.1743739527       -1.6547595404
 H         -1.3303657494        1.5591161366       -0.0072868903
 H         -2.2091651714       -0.6480658019       -1.5112728709
 H         -0.4835677276        0.2601181566        1.9346201202
 H          0.5523228049       -1.1700005120        1.6918636935
 H         -2.1252225671       -1.0386532947        0.8605455672
 H          3.1031121738        0.7389786407        0.4722583871
