  19
        -32.07275845
 C          0.6902318524       -1.6443321724       -0.8956211256
 C         -0.0999101378       -0.4558244865       -0.3592717551
 C         -1.0304544725        0.1231693589       -1.4537441391
 O         -1.8688495920        1.1425804096       -1.0002176005
 C         -0.9481527900       -0.8722321382        0.8562036553
 O         -0.0802795260       -1.2162632730        1.9134381551
 C          0.8103207955        0.6648151941        0.1152293082
 O          2.0967347749        0.3485404451        0.1538633838
 O          0.4079248972        1.7649615727        0.4144528418
 H          1.2989825825       -2.0641659482       -0.1004771519
 H          1.3397060351       -1.3371886418       -1.7108982374
 H          0.0057850551       -2.4068709949       -1.2595543630
 H         -1.6850923017       -0.6711776213       -1.8230674870
 H         -0.4047916568        0.4726789225       -2.2905611544
 H         -1.3196766927        1.7871383090       -0.5226856340
 H         -1.5781094350       -1.7259504874        0.5707873612
 H         -1.5982338097       -0.0345660501        1.1399286571
 H         -0.6067237539       -1.4605899329        2.6808756721
 H          2.6171877062        1.0918451358        0.4997562780
