  19
        -32.07354543
 C          0.4815705181       -1.1968131576       -1.4722272076
 C         -0.1103856814       -0.4803296508       -0.2538489904
 C         -1.4919403279        0.1113172607       -0.6154459028
 O         -1.4407437662        1.0170239727       -1.6794591772
 C         -0.2310424530       -1.4698219126        0.9260000075
 O         -0.5887052894       -0.8664536449        2.1409102264
 C          0.8263214537        0.6482503809        0.1507013186
 O          2.0100437178        0.2103621515        0.5680459300
 O          0.5552620336        1.8215414779        0.0897057802
 H         -0.1080867145       -2.0824212394       -1.6965789209
 H          1.5086739972       -1.4949390451       -1.2807639941
 H          0.4511846581       -0.5351639026       -2.3348641091
 H         -1.9258927533        0.5956290349        0.2725871700
 H         -2.1550378745       -0.6974272318       -0.9353767224
 H         -0.8992799337        1.7666416613       -1.3915691143
 H          0.7436995064       -1.9279393445        1.1070857340
 H         -0.9464218924       -2.2576885830        0.6511840113
 H         -1.4839802894       -0.5163082401        2.0780035333
 H          2.5709826594        0.9553044466        0.8367610060
