  21
        -28.37150609
 C         -2.3732928046       -0.6491686021        0.3422659157
 C         -1.3061367240        0.4404790322        0.2959496409
 C         -0.0576120599        0.1027289763       -0.5518254559
 N         -0.3275193362       -0.0164288999       -1.9767871705
 C          0.9690227872        1.2465729617       -0.3837043467
 O          1.3664476378        1.4528589778        0.9430030048
 C          0.5942258584       -1.2295991507       -0.1248579156
 O          0.9776739061       -1.2804070532        1.2301159890
 H         -3.2406640371       -0.2881330280        0.8906337530
 H         -2.0169049791       -1.5502085334        0.8371896747
 H         -2.7015862754       -0.9183246377       -0.6604901588
 H         -0.9809825033        0.6902700354        1.3085573591
 H         -1.7481176128        1.3481295514       -0.1251186406
 H         -0.9936587281       -0.7598038869       -2.1541820633
 H         -0.7202206692        0.8469853706       -2.3350497319
 H          0.5244351556        2.1885890652       -0.7182358312
 H          1.8312111678        1.0264727568       -1.0289529438
 H          1.6751822981        0.6000086091        1.2870959165
 H          1.5109736142       -1.3657047218       -0.7027113865
 H         -0.0803475653       -2.0607958782       -0.3686418303
 H          0.1863928967       -1.2062320044        1.7760321497
