  21
        -28.37142399
 C         -2.4105765988       -0.1662447103        0.7357099391
 C         -1.4918478857       -0.2668967912       -0.4759274887
 C         -0.0192829377        0.0927907203       -0.2242989764
 N          0.6897512645        0.0047048260       -1.5025071503
 C          0.1165087468        1.5058355071        0.3929750347
 O          1.4385631590        1.9908534869        0.3416420672
 C          0.6572611726       -0.9596002523        0.6806880465
 O          0.6754053892       -2.2168508477        0.0670450413
 H         -3.4120540324       -0.4818654689        0.4527752676
 H         -2.4701920320        0.8539899885        1.1058087154
 H         -2.0711931241       -0.8123799445        1.5400925299
 H         -1.8740351454        0.3885491442       -1.2632956767
 H         -1.5123805808       -1.2905411673       -0.8548514265
 H          1.5831345439        0.4840430980       -1.4179780134
 H          0.1674687556        0.4775647681       -2.2319726598
 H         -0.2563704763        1.5076938849        1.4237555547
 H         -0.4716477624        2.2147566920       -0.1964484358
 H          1.9829664362        1.4854952481        0.9549432218
 H          0.1259424520       -1.0681597780        1.6278793770
 H          1.6903977514       -0.6388605219        0.8986938553
 H          0.8889423980       -2.0516832289       -0.8642270914
