  21
        -28.37144523
 C         -2.2845431320       -1.0272995255       -0.2184860161
 C         -1.5977952158        0.2645743659        0.2100670386
 C         -0.0763069869        0.2659981734       -0.0012694470
 N          0.2390954758       -0.0003589091       -1.4024260284
 C          0.4748518866        1.6473187519        0.4415022846
 O          1.8059550463        1.8591889557        0.0398087886
 C          0.6154782686       -0.8485846765        0.8184533915
 O          0.4790837463       -2.1085763884        0.2267931274
 H         -1.9160988241       -1.8694394127        0.3585854689
 H         -2.1005588416       -1.2250963681       -1.2710740250
 H         -3.3575850907       -0.9404012336       -0.0636629926
 H         -1.7964438715        0.4512609588        1.2675421008
 H         -2.0222677950        1.0997504243       -0.3554053156
 H          1.1860277065        0.3202932356       -1.5919231542
 H         -0.3821562706        0.5240149628       -2.0083576233
 H          0.3650958812        1.7606541639        1.5279278662
 H         -0.0983644170        2.4388534845       -0.0489173502
 H          2.3848925272        1.2662164930        0.5319242008
 H          0.1886997500       -0.9031711178        1.8236702888
 H          1.6900191965       -0.6131522379        0.9174248794
 H          0.4446566675       -1.9449958977       -0.7296333435
