  21
        -28.37134190
 C         -2.3648734344        0.6201139402        0.3435478701
 C         -1.2974565494       -0.4665176642        0.2537199794
 C         -0.0435762013       -0.1031657571       -0.5622623135
 N         -0.3912940437       -0.0801800397       -1.9749051195
 C          0.5754990967        1.2468297120       -0.1180660136
 O          0.9247963657        1.3047771953        1.2471214624
 C          1.0040476784       -1.2238928942       -0.3716603120
 O          1.3683295615       -1.4305935805        0.9639678895
 H         -3.2228029677        0.2373631689        0.8916780438
 H         -2.7060905684        0.9122795345       -0.6468842606
 H         -2.0100417481        1.5089873567        0.8620233548
 H         -1.7313872371       -1.3452797518       -0.2253153017
 H         -0.9822515575       -0.7641626850        1.2564924757
 H          0.4335245013        0.0719398914       -2.5445545613
 H         -1.0451108827        0.6698641250       -2.1690680143
 H         -0.1095788109        2.0672599461       -0.3771547086
 H          1.5108248225        1.4091114255       -0.6638442653
 H          0.1229472779        1.1943058347        1.7711134075
 H          1.8887925292       -0.9853997198       -0.9833593050
 H          0.5844748341       -2.1654948995       -0.7325828433
 H          1.6429297877       -0.5736184039        1.3265635924
