  21
        -28.37360415
 C         -2.6039700732       -0.0057603462        0.7330520326
 C         -1.7600999096       -0.0143951116       -0.5364225651
 C         -0.2347794710       -0.0058787834       -0.3230381304
 N          0.4863483583       -0.0497114436       -1.5982867527
 C          0.2101064985        1.2628536981        0.4337315293
 O          1.5978904399        1.4455935095        0.4378946199
 C          0.2377583778       -1.2598707602        0.4483985529
 O          1.6391028519       -1.3623607116        0.4104031420
 H         -3.6583487359       -0.0400409259        0.4676509077
 H         -2.4314042709        0.8962673762        1.3129409095
 H         -2.3827717524       -0.8692780970        1.3539365622
 H         -2.0217802359        0.8580224685       -1.1426410767
 H         -2.0116285188       -0.9074108450       -1.1174533428
 H          0.6160491255        0.8814453733       -1.9739786224
 H         -0.0149578203       -0.6094088392       -2.2786864941
 H         -0.1738751946        1.2171489922        1.4631698948
 H         -0.2122965858        2.1493061496       -0.0513823844
 H          1.9976796297        0.6062451516        0.7156210626
 H         -0.2201562097       -2.1550704732        0.0011875040
 H         -0.0463338505       -1.2099378565        1.5006542402
 H          1.8837551039       -1.1729907711       -0.5114637679
