  21
        -28.37140715
 C         -2.4942714794        0.5149633747        0.1421170029
 C         -1.2644990709       -0.3420764287        0.4227649906
 C         -0.0654432246       -0.0709345522       -0.5063596635
 N         -0.4978708098       -0.0945778775       -1.8967829587
 C          0.6173357410        1.2703694937       -0.1342517013
 O          1.0345889215        1.3400501251        1.2011445891
 C          0.9643183750       -1.2153509603       -0.3635486896
 O          1.4425526237       -1.4085257485        0.9478918047
 H         -3.2603614265        0.2989315073        0.8833467437
 H         -2.9026265122        0.2960765555       -0.8408046610
 H         -2.2566239884        1.5738432845        0.2037907589
 H         -1.5462752839       -1.3931242918        0.3243274816
 H         -0.9407418920       -0.1539252553        1.4492026069
 H          0.3034749374       -0.0146060300       -2.5136823690
 H         -1.1074033999        0.6928276722       -2.0858665138
 H         -0.0827077231        2.0987707323       -0.2790675800
 H          1.4707234832        1.4256292145       -0.8166771473
 H          1.5635992357        0.5471429640        1.3809428984
 H          1.8497881001       -0.9848089934       -0.9633929070
 H          0.5145638688       -2.1345064104       -0.7592782784
 H          0.7155874240       -1.7215286159        1.4976091888
