  21
        -28.37152056
 C         -2.3656533675       -0.2760475767        0.7870738195
 C         -1.5102272564       -0.2175116187       -0.4742043374
 C         -0.0211624502        0.1225969408       -0.2539054097
 N          0.7224557809        0.1133424026       -1.5145230189
 C          0.1525906726        1.5408593201        0.3279457365
 O          1.4981870701        1.9243829159        0.3186432340
 C          0.6789212495       -0.8897606947        0.6739269321
 O          0.6235938478       -2.2092949931        0.1883450139
 H         -2.0160740692       -1.0414352707        1.4756095832
 H         -3.3941734016       -0.5097506469        0.5195446618
 H         -2.3586125472        0.6797889079        1.3032295235
 H         -1.9277123749        0.5398931780       -1.1446449876
 H         -1.5708963792       -1.1770947224       -0.9986524077
 H          0.1737458915        0.5179054847       -2.2655125128
 H          0.9593800763       -0.8406841072       -1.7648580950
 H         -0.1835837710        1.5856306240        1.3654298642
 H         -0.4490416027        2.2455818450       -0.2685942970
 H          1.8615616880        1.5842216567       -0.5147218856
 H          0.2629471321       -0.8201613747        1.6855076517
 H          1.7391528561       -0.6334524586        0.7202541118
 H         -0.2862443826       -2.5212047912        0.2448368080
