  21
        -28.37326684
 C         -2.6975369062        0.6927998991       -0.1764644741
 C         -1.7478314707       -0.4663529322        0.1112164826
 C         -0.2559962138       -0.1562918213       -0.0769507771
 N          0.0839392211       -0.0299309015       -1.4965052486
 C          0.1769400066        1.1099357676        0.6978698065
 O          1.5214732527        1.4336819535        0.4553882182
 C          0.5521741751       -1.3674715273        0.4559701672
 O          1.9158584270       -1.2944988415        0.1135241170
 H         -3.7233004451        0.3320667799       -0.1658471865
 H         -2.5081928673        1.1318060855       -1.1539389071
 H         -2.6062923978        1.4718938696        0.5753854792
 H         -1.9896261735       -1.2994390288       -0.5530017214
 H         -1.9023706207       -0.8044572621        1.1376904056
 H          0.8282506174        0.6576830325       -1.5919229497
 H         -0.7082353201        0.3110434687       -2.0269528220
 H         -0.0076120356        0.9625068641        1.7723213629
 H         -0.3968834491        1.9775446326        0.3617143725
 H          2.0472608939        0.6305289470        0.6044386953
 H          0.1126922318       -2.2898452387        0.0543415684
 H          0.5099544943       -1.4064947875        1.5467522752
 H          1.9504109290       -1.2352943224       -0.8506704873
