%nprocshared=4
%mem=8000mb
%chk=monomer.chk
%nprocshared=4
%mem=8000mb
#T wB97XD/def2svpp opt=tight freq int(grid=ultrafine) scf=(verytight,qc) Volume=tight

Monomer

0 1
 C         -2.5996957598        0.0394765637        0.7165966614
 C         -1.7518116200       -0.0563344839       -0.5463750404
 C         -0.2340902124       -0.0341602779       -0.3262471078
 N          0.4350859593        0.0285372002       -1.6315223041
 C          0.1928246765        1.2404090240        0.4397340135
 O          1.5891212026        1.4283108258        0.4137140417
 C          0.2484586807       -1.2802107854        0.4547425694
 O          1.6499797980       -1.3762634674        0.4536856348
 H         -3.6526850239       -0.0073732315        0.4483934429
 H         -2.4249836965        0.9767019411        1.2368681444
 H         -2.3876221055       -0.7822840287        1.3948129112
 H         -1.9992803544        0.7774626879       -1.2079554598
 H         -2.0050029860       -0.9823732661       -1.0707553539
 H         -0.1156904069       -0.4493407638       -2.3353200547
 H          1.3211674906       -0.4693169195       -1.5625619418
 H         -0.0805723546        1.1687967923        1.4939083297
 H         -0.3132187436        2.1081618233       -0.0025449341
 H          1.8395608480        1.4887941169       -0.5175713755
 H         -0.1183028424       -2.1910956565       -0.0291668789
 H         -0.1358827236       -1.2519926271        1.4830926226
 H          1.9958854772       -0.5266309703        0.7728118139


