%chk=0.chk
%nprocshared=4
%mem=8000mb
#T wB97XD/def2svpp opt=tight freq int(grid=ultrafine) scf=(verytight,qc) Volume=tight

Dimer

0 1
C       -1.824922   -1.866460    0.252388
C       -0.867171   -0.886757    0.927166
C        0.000000   -0.000001    0.000000
C        0.886837   -0.867044   -0.927209
C        1.866488   -1.824883   -0.252479
C       -0.886626    0.867088   -0.927367
C       -1.866427    1.824898   -0.252814
C        0.866961    0.886707    0.927410
C        1.824861    1.866452    0.252905
H       -2.567445   -1.350997   -0.380893
H       -2.383968   -2.438453    1.012809
H       -1.292764   -2.596991   -0.381027
H       -0.194918   -1.452290    1.597629
H       -1.447818   -0.227285    1.597405
H        1.452425   -0.194698   -1.597533
H        0.227424   -1.447602   -1.597581
H        2.596967   -1.292809    0.381067
H        2.438542   -2.383826   -1.012928
H        1.350974   -2.567492    0.380660
H       -1.452064    0.194774   -1.597850
H       -0.227061    1.447676   -1.597565
H       -2.438314    2.383872   -1.013366
H       -1.351055    2.567481    0.380471
H       -2.597046    1.292796    0.380547
H        1.447458    0.227200    1.597743
H        0.194554    1.452201    1.597753
H        2.383731    2.438403    1.013486
H        1.292844    2.597018   -0.380589
H        2.567531    1.351028   -0.380236


