  16
        -17.08393304
 C         -0.6119991371       -1.4444437640        0.1151810698
 C         -0.4841961748        0.0067785931       -0.3370154389
 C         -1.7465673629        0.7949103896        0.0008452244
 C          0.7429387754        0.6570622372        0.3099611288
 N          1.9575205502       -0.0353426894       -0.0933358012
 H         -0.8318138400       -1.4879969114        1.1795746522
 H          0.3220844611       -1.9683929484       -0.0653707017
 H         -1.4122212535       -1.9455614326       -0.4246506680
 H         -0.3406646240        0.0221332272       -1.4241225977
 H         -2.6153349639        0.3352115275       -0.4643817414
 H         -1.6705599710        1.8211914397       -0.3527180068
 H         -1.9033856018        0.8138814911        1.0773070854
 H          0.6639376501        0.5740870175        1.3979074836
 H          0.7551426744        1.7315225190        0.0541766560
 H          2.7662666711        0.3793334787        0.3562109220
 H          2.0863540998        0.0452450168       -1.0971198432
