  16
        -17.08272296
 C         -0.6458401146       -1.5113075088        0.0186042567
 C         -0.5853230125       -0.0777205351       -0.4994805756
 C         -1.3672555302        0.8590554747        0.4198949042
 C          0.8746253450        0.3710018123       -0.6565302276
 N          1.5961915097        0.2935625928        0.6043758524
 H         -0.1806769548       -2.1924142069       -0.6896992986
 H         -1.6775848276       -1.8197544266        0.1702714008
 H         -0.1112117512       -1.5799781627        0.9616771020
 H         -1.0408660771       -0.0381964206       -1.4960736331
 H         -1.2649257683        1.8933533942        0.0960510700
 H         -1.0126549138        0.7739589286        1.4442052505
 H         -2.4237661965        0.6010203174        0.4070414185
 H          0.8879725122        1.3831612323       -1.0993408605
 H          1.3745399344       -0.3035144035       -1.3579678536
 H          2.5774933601        0.5016511430        0.4580475909
 H          1.2317420530        0.9789015043        1.2573118559
