  29
        -29.47816140
 C         -1.0972183216       -1.4855333421        1.7791395315
 C         -1.2689778060       -0.4541219149        0.6664727355
 C         -0.0011935341       -0.1282292911       -0.1469421024
 C          0.5559265341       -1.4519533320       -0.7236783500
 C          1.7374930552       -1.3192652432       -1.6804471723
 C         -0.3833721682        0.7717127604       -1.3463051584
 C         -1.3274552266        1.9441231565       -1.0933434084
 C          1.1012642533        0.5113233544        0.7272401579
 C          0.6791858091        1.5572671718        1.7558396609
 H         -2.0086821748       -1.5331754786        2.3725224983
 H         -0.2770654461       -1.2218693708        2.4411716439
 H         -0.9113164964       -2.4780990667        1.3778018901
 H         -1.6465615846        0.4668101485        1.1095394805
 H         -2.0315644418       -0.8200941527       -0.0262052357
 H         -0.2544234503       -1.9686040378       -1.2448755511
 H          0.8703189266       -2.0884568642        0.1047468395
 H          2.0728563228       -2.3109972136       -1.9784238266
 H          2.5730051849       -0.8118909784       -1.2060350246
 H          1.4654176289       -0.7750242009       -2.5803466321
 H         -0.8542661006        0.1348152957       -2.1004488504
 H          0.5343253629        1.1699163777       -1.7831354252
 H         -1.4884476391        2.4745759948       -2.0306381722
 H         -0.9145926333        2.6509614292       -0.3809320297
 H         -2.2952199588        1.6091327500       -0.7312680481
 H          1.8363877673        0.9714417857        0.0636843283
 H          1.6145003797       -0.2892655938        1.2659303395
 H          1.5655079986        1.9192588391        2.2751007457
 H          0.0054989943        1.1411665921        2.4993018099
 H          0.1961287616        2.4109719150        1.2916416065
