  29
        -29.47847765
 C         -1.8333936307       -0.9057379541        1.5595500032
 C         -0.8081532685       -1.2484774306        0.4797100026
 C          0.1445345240       -0.1243922869        0.0014570706
 C          1.4548453523       -0.7853950854       -0.4899813002
 C          1.3067525498       -1.8660910356       -1.5576819912
 C         -0.4584807058        0.6627719378       -1.1794485932
 C         -1.7092448276        1.4881394505       -0.8968488291
 C          0.4909322382        0.7988024516        1.1874949940
 C          1.4741769171        1.9296099129        0.8973625570
 H         -2.4531018426       -0.0581301535        1.2858787003
 H         -1.3504809438       -0.6877774211        2.5083512385
 H         -2.4862307295       -1.7643210660        1.7097855035
 H         -1.3437623897       -1.6339735786       -0.3901361732
 H         -0.1972845318       -2.0646320373        0.8738539391
 H          1.9597889569       -1.2241745546        0.3747480086
 H          2.1086151829       -0.0101499512       -0.8927260814
 H          0.8731554359       -1.4659333166       -2.4701154806
 H          0.6878949528       -2.6895104469       -1.2126630419
 H          2.2892733043       -2.2648079590       -1.8035619918
 H         -0.7025037671       -0.0467667777       -1.9724220081
 H          0.3121792392        1.3288847570       -1.5735565112
 H         -2.5512142576        0.8513534866       -0.6411998205
 H         -1.9781118579        2.0494113552       -1.7904755999
 H         -1.5480334176        2.1997972529       -0.0919061777
 H          0.9071969833        0.1780821302        1.9852416405
 H         -0.4270000187        1.2452013657        1.5681875132
 H          1.6079465880        2.5278590354        1.7969829513
 H          1.1042554429        2.5842878122        0.1130770280
 H          2.4489401972        1.5503193630        0.6034235858
