  29
        -29.47863071
 C         -0.5423963300       -1.9732817106        1.5846804144
 C         -1.1514305009       -0.7728053453        0.8693655821
 C         -0.2391643594       -0.0150572906       -0.1206202212
 C          0.2140170877       -0.9597068769       -1.2628547623
 C          1.5394501054       -1.6988390553       -1.0916813803
 C         -1.1326777979        1.0826258922       -0.7491041436
 C         -0.4188630233        2.1411650404       -1.5848686024
 C          0.9760420427        0.6021488049        0.5927072665
 C          0.6528909123        1.5871996567        1.7131535261
 H         -1.2619686056       -2.3709666407        2.2984845714
 H          0.3539454565       -1.6963960448        2.1331944550
 H         -0.2964812597       -2.7664306731        0.8844878000
 H         -1.5056113013       -0.0666080627        1.6226669429
 H         -2.0325000300       -1.1139043448        0.3184445066
 H          0.2933199198       -0.3799975225       -2.1841181550
 H         -0.5775468344       -1.6959069709       -1.4226112440
 H          2.3779041794       -1.0073846324       -1.0925029641
 H          1.6729201270       -2.3840411120       -1.9274857679
 H          1.5721831975       -2.2784914245       -0.1747046931
 H         -1.6830099389        1.5895542906        0.0460145286
 H         -1.8734930800        0.5835639343       -1.3796252673
 H         -1.1572897220        2.7780570457       -2.0683254049
 H          0.1958096407        1.6939359280       -2.3623036874
 H          0.2155551229        2.7726888274       -0.9693802057
 H          1.5900749183        1.1088461057       -0.1536307536
 H          1.5811392503       -0.1987765886        1.0170529813
 H          0.1405414895        1.0950873106        2.5355784716
 H          0.0328882926        2.4075927734        1.3630838471
 H          1.5787099741        2.0076437537        2.1022553867
