  29
        -29.47755001
 C         -1.0315706196       -1.6353306815        1.7242735343
 C         -1.2831406694       -0.3547456403        0.9333676101
 C         -0.1356079472        0.2133697484        0.0660147136
 C          0.4886508158       -0.9067752591       -0.7818210764
 C          1.5318076694       -0.4503671222       -1.7981692735
 C         -0.7527436507        1.3163197139       -0.8317580822
 C         -1.7404908847        0.8671218490       -1.9051244683
 C          0.9230832908        0.9400534581        0.9310750237
 C          1.9425802453        0.0972538667        1.6921622497
 H         -1.9474691849       -1.9126690227        2.2441417224
 H         -0.2547352282       -1.5106920572        2.4710575773
 H         -0.7581742726       -2.4588391859        1.0707129738
 H         -1.5971491869        0.4260067727        1.6310942595
 H         -2.1303545036       -0.5568701255        0.2760077717
 H         -0.3126823748       -1.4292885190       -1.3084894774
 H          0.9571844252       -1.6291082907       -0.1133260461
 H          1.9493373825       -1.3183914347       -2.3057731908
 H          2.3470830060        0.0807563842       -1.3145777031
 H          1.0988922417        0.2010233165       -2.5521040761
 H          0.0566018541        1.8542835234       -1.3288068286
 H         -1.2562902656        2.0333717668       -0.1778088554
 H         -1.2771894384        0.1855631513       -2.6128081725
 H         -2.0874477927        1.7388178228       -2.4570821129
 H         -2.6128329070        0.3790420565       -1.4785999469
 H          0.3922529884        1.5702570371        1.6493644542
 H          1.4855152290        1.6137349549        0.2796480951
 H          2.5295563417       -0.5232684800        1.0212913752
 H          1.4744614506       -0.5420144512        2.4329509656
 H          2.6278461821        0.7627107204        2.2153604209
