  29
        -29.47390471
 C         -0.8253636917       -2.2400266204        1.3527883282
 C         -1.3436718907       -0.9747192909        0.6765485898
 C         -0.3223847157        0.0094749136        0.0491183885
 C          0.4082687588       -0.6267746440       -1.1515908409
 C          1.6103679404       -1.5223372696       -0.8546223825
 C         -1.1988888538        1.2066485460       -0.4214361849
 C         -0.7063694711        2.0791113109       -1.5751112160
 C          0.6511273196        0.4630489395        1.1534918183
 C          1.5939798022        1.6066868312        0.7937854084
 H         -0.4217688689       -2.9406477230        0.6279848751
 H         -1.6535861875       -2.7334113113        1.8592397814
 H         -0.0650401898       -2.0195247980        2.0963377185
 H         -1.9177275709       -0.4113401883        1.4180886611
 H         -2.0434015078       -1.2812869501       -0.1056695677
 H          0.7721939474        0.1675181833       -1.8018060393
 H         -0.3253985303       -1.2006407228       -1.7235006670
 H          1.9598357800       -1.9616513128       -1.7879987974
 H          1.3711748873       -2.3313410877       -0.1737782078
 H          2.4316383699       -0.9505470676       -0.4312001949
 H         -1.3704938583        1.8462569947        0.4475252402
 H         -2.1749628280        0.8177492225       -0.7225183730
 H         -1.3587690264        2.9470924391       -1.6585952764
 H         -0.7519424288        1.5438820079       -2.5204381546
 H          0.3072283409        2.4358053897       -1.4253026824
 H          1.2536916114       -0.3917458416        1.4597839551
 H          0.0600724791        0.7678685326        2.0216487549
 H          2.3117706208        1.7517223845        1.5998349279
 H          1.0512557976        2.5384921425        0.6625191207
 H          2.1483941639        1.3924896259       -0.1159080248
