  29
        -29.48172797
 C         -1.9266463553       -0.8606326593        1.5276645289
 C         -0.8882670715       -1.1771801844        0.4550888421
 C          0.0000771113        0.0000476244       -0.0000764759
 C          0.8639323694       -0.4680171067       -1.1904102738
 C          1.8907178673       -1.5561665063       -0.8895940657
 C         -0.8527864036        1.2032478301       -0.4552594397
 C         -1.9011113847        0.9176394524       -1.5268461141
 C          0.8775366028        0.4421800407        1.1902170196
 C          1.9365882509        1.4988928178        0.8891844108
 H         -1.4567544560       -0.5087755139        2.4421594730
 H         -2.4850549824       -1.7641323760        1.7663561592
 H         -2.6348891975       -0.1088026687        1.1914389441
 H         -1.4023816440       -1.5841358850       -0.4179483087
 H         -0.2392927011       -1.9650108807        0.8424255510
 H          1.3850116615        0.3973285872       -1.6048633216
 H          0.1975746604       -0.8452572883       -1.9685694222
 H          2.4323357329       -1.8024868219       -1.8012413686
 H          1.4123875532       -2.4638222087       -0.5314363131
 H          2.6147385776       -1.2310677461       -0.1479601121
 H         -0.1806660075        1.9709534554       -0.8435407055
 H         -1.3537385275        1.6260070910        0.4179218962
 H         -2.4316189448        1.8376310266       -1.7661962495
 H         -2.6319411950        0.1883429609       -1.1893300664
 H         -1.4428839862        0.5504777364       -2.4412460102
 H          1.3723206768       -0.4383545386        1.6049081871
 H          0.2227527638        0.8394573429        1.9682267638
 H          1.4858349180        2.4200907704        0.5298690737
 H          2.6511212229        1.1516612517        0.1483893075
 H          2.4846554425        1.7297609408        1.8010127113
