  29
        -29.47515094
 C         -2.0821643766       -0.6728146831        1.5927515724
 C         -1.1351429693       -1.2125603042        0.5218347639
 C         -0.0042134639       -0.2844170271        0.0000502383
 C          1.0988324827       -1.2456296921       -0.5216036170
 C          2.0610278356       -0.7343447766       -1.5929445366
 C         -0.4966716498        0.5812391488       -1.1754844187
 C         -1.7120429268        1.4688519332       -0.9286668809
 C          0.5136642580        0.5664086947        1.1754877963
 C          1.7549894427        1.4173177202        0.9285958520
 H         -1.5623281994       -0.5130229953        2.5334612997
 H         -2.8665439623       -1.4072798519        1.7692105892
 H         -2.5545803909        0.2581535600        1.2997263919
 H         -1.7266094675       -1.5352948820       -0.3384037423
 H         -0.6666667118       -2.1067624208        0.9422341166
 H          0.6042245742       -2.1258670481       -0.9415376031
 H          1.6807741818       -1.5852512810        0.3386329711
 H          2.8237213592       -1.4914081615       -1.7689404350
 H          2.5602854522        0.1827209668       -1.3005807799
 H          1.5459335437       -0.5601792465       -2.5337146893
 H         -0.7334985416       -0.0887355327       -2.0061774370
 H          0.3246092475        1.2214900581       -1.4982427101
 H         -1.8803360684        2.0948866930       -1.8037059822
 H         -1.5612739197        2.1246893589       -0.0752714781
 H         -2.6091411634        0.8777657159       -0.7685902259
 H          0.7303269855       -0.1101694461        2.0063370592
 H         -0.2881858983        1.2309349869        1.4980399715
 H          2.6339950617        0.7996765396        0.7684050998
 H          1.9420060400        2.0380102072        1.8036398361
 H          1.6238011668        2.0773902477        0.0752302375
