  29
        -29.48214929
 C         -1.8627392633       -1.8073638295        0.2385957332
 C         -0.8855509831       -0.8596915652        0.9263640570
 C         -0.0000179862        0.0001847326        0.0000161502
 C          0.8597940751       -0.8853585123       -0.9263717273
 C          1.8080759642       -1.8619729090       -0.2386137345
 C         -0.8598878616        0.8857605901       -0.9263110064
 C         -1.8089251742        1.8616016272       -0.2384655727
 C          0.8856432746        0.8600251478        0.9262924418
 C          1.8635951688        1.8068927971        0.2384993206
 H         -2.5724233385       -1.2657100198       -0.3808856434
 H         -2.4263019738       -2.3547767852        0.9920313641
 H         -1.3431480777       -2.5325526446       -0.3818316847
 H         -0.2333767512       -1.4464882849        1.5763027234
 H         -1.4519232078       -0.1905523475        1.5771787934
 H          1.4460976932       -0.2331417546       -1.5767116433
 H          0.1906624914       -1.4522257537       -1.5767666037
 H          2.5330383269       -1.3419599763        0.3817289765
 H          2.3557088886       -2.4252883488       -0.9920761838
 H          1.2668403541       -2.5719181663        0.3809441025
 H         -1.4456333600        0.2336028065       -1.5772232499
 H         -0.1907538234        1.4532588128       -1.5761533199
 H         -2.3563625872        2.4250929898       -0.9919525330
 H         -1.2682905040        2.5714273316        0.3817847757
 H         -2.5340296640        1.3409086587        0.3811637541
 H          1.4514882654        0.1908935345        1.5775849910
 H          0.2335008830        1.4473941485        1.5757464857
 H          2.4263708817        2.3550939679        0.9919464954
 H          1.3447367298        2.5314539660       -0.3832607787
 H          2.5739511405        1.2645574106       -0.3796182913
