  29
        -29.48214929
 C         -1.8627392633       -1.8073638295        0.2385957332
 C         -0.8855509831       -0.8596915652        0.9263640570
 C         -0.0000179862        0.0001847326        0.0000161502
 C          0.8597940751       -0.8853585123       -0.9263717273
 C          1.8080759642       -1.8619729090       -0.2386137345
 C         -0.8598878616        0.8857605901       -0.9263110064
 C         -1.8089251742        1.8616016272       -0.2384655727
 C          0.8856432746        0.8600251478        0.9262924418
 C          1.8635951688        1.8068927971        0.2384993206
 H         -2.5724233385       -1.2657100198       -0.3808856434
 H         -2.4263019738       -2.3547767852        0.9920313641
 H         -1.3431480777       -2.5325526446       -0.3818316847
 H         -0.2333767512       -1.4464882849        1.5763027234
 H         -1.4519232078       -0.1905523475        1.5771787934
 H          1.4460976932       -0.2331417546       -1.5767116433
 H          0.1906624914       -1.4522257537       -1.5767666037
 H          2.5330383269       -1.3419599763        0.3817289765
 H          2.3557088886       -2.4252883488       -0.9920761838
 H          1.2668403541       -2.5719181663        0.3809441025
 H         -1.4456333600        0.2336028065       -1.5772232499
 H         -0.1907538234        1.4532588128       -1.5761533199
 H         -2.3563625872        2.4250929898       -0.9919525330
 H         -1.2682905040        2.5714273316        0.3817847757
 H         -2.5340296640        1.3409086587        0.3811637541
 H          1.4514882654        0.1908935345        1.5775849910
 H          0.2335008830        1.4473941485        1.5757464857
 H          2.4263708817        2.3550939679        0.9919464954
 H          1.3447367298        2.5314539660       -0.3832607787
 H          2.5739511405        1.2645574106       -0.3796182913
  29
        -29.48172797
 C         -1.9266463553       -0.8606326593        1.5276645289
 C         -0.8882670715       -1.1771801844        0.4550888421
 C          0.0000771113        0.0000476244       -0.0000764759
 C          0.8639323694       -0.4680171067       -1.1904102738
 C          1.8907178673       -1.5561665063       -0.8895940657
 C         -0.8527864036        1.2032478301       -0.4552594397
 C         -1.9011113847        0.9176394524       -1.5268461141
 C          0.8775366028        0.4421800407        1.1902170196
 C          1.9365882509        1.4988928178        0.8891844108
 H         -1.4567544560       -0.5087755139        2.4421594730
 H         -2.4850549824       -1.7641323760        1.7663561592
 H         -2.6348891975       -0.1088026687        1.1914389441
 H         -1.4023816440       -1.5841358850       -0.4179483087
 H         -0.2392927011       -1.9650108807        0.8424255510
 H          1.3850116615        0.3973285872       -1.6048633216
 H          0.1975746604       -0.8452572883       -1.9685694222
 H          2.4323357329       -1.8024868219       -1.8012413686
 H          1.4123875532       -2.4638222087       -0.5314363131
 H          2.6147385776       -1.2310677461       -0.1479601121
 H         -0.1806660075        1.9709534554       -0.8435407055
 H         -1.3537385275        1.6260070910        0.4179218962
 H         -2.4316189448        1.8376310266       -1.7661962495
 H         -2.6319411950        0.1883429609       -1.1893300664
 H         -1.4428839862        0.5504777364       -2.4412460102
 H          1.3723206768       -0.4383545386        1.6049081871
 H          0.2227527638        0.8394573429        1.9682267638
 H          1.4858349180        2.4200907704        0.5298690737
 H          2.6511212229        1.1516612517        0.1483893075
 H          2.4846554425        1.7297609408        1.8010127113
  29
        -29.47868370
 C         -1.7566852540       -0.3275956277        1.8043579033
 C         -0.9779876670       -1.0224415438        0.6887988284
 C         -0.0053943201       -0.1675538867       -0.1618515363
 C          1.0411318608       -1.1569466334       -0.7279534200
 C          2.0998148691       -0.5686312576       -1.6558111575
 C         -0.7350538605        0.4685395848       -1.3658364254
 C         -1.9683388078        1.3145230163       -1.0684854799
 C          0.6721541764        0.9395043576        0.6650903086
 C          1.6270708754        0.4522130993        1.7518457191
 H         -2.4522719233       -1.0407616663        2.2445154795
 H         -2.3296942476        0.5192757395        1.4429837111
 H         -1.0952052841        0.0185915387        2.5934433803
 H         -1.6903828989       -1.4921456319        0.0060924950
 H         -0.4082677652       -1.8322639697        1.1517445502
 H          0.5033236633       -1.9391740715       -1.2708156685
 H          1.5493359930       -1.6418618120        0.1071654840
 H          2.8095372684       -1.3465453768       -1.9315408317
 H          2.6515779079        0.2318623604       -1.1708332355
 H          1.6591452126       -0.1816084326       -2.5703489502
 H         -1.0318949930       -0.3339601438       -2.0466338649
 H         -0.0212958310        1.1003435645       -1.8978498229
 H         -2.3148309153        1.7780344958       -1.9909126156
 H         -1.7443555611        2.1082268226       -0.3607359428
 H         -2.7806553181        0.7079891254       -0.6785370745
 H         -0.1022310974        1.5498494543        1.1296407396
 H          1.2249053986        1.5930807622       -0.0133051389
 H          1.9328062028        1.2922269040        2.3732800260
 H          2.5236090788        0.0124915597        1.3231278926
 H          1.1560292556       -0.2886705985        2.3918553460
  29
        -29.47863071
 C         -0.5423963300       -1.9732817106        1.5846804144
 C         -1.1514305009       -0.7728053453        0.8693655821
 C         -0.2391643594       -0.0150572906       -0.1206202212
 C          0.2140170877       -0.9597068769       -1.2628547623
 C          1.5394501054       -1.6988390553       -1.0916813803
 C         -1.1326777979        1.0826258922       -0.7491041436
 C         -0.4188630233        2.1411650404       -1.5848686024
 C          0.9760420427        0.6021488049        0.5927072665
 C          0.6528909123        1.5871996567        1.7131535261
 H         -1.2619686056       -2.3709666407        2.2984845714
 H          0.3539454565       -1.6963960448        2.1331944550
 H         -0.2964812597       -2.7664306731        0.8844878000
 H         -1.5056113013       -0.0666080627        1.6226669429
 H         -2.0325000300       -1.1139043448        0.3184445066
 H          0.2933199198       -0.3799975225       -2.1841181550
 H         -0.5775468344       -1.6959069709       -1.4226112440
 H          2.3779041794       -1.0073846324       -1.0925029641
 H          1.6729201270       -2.3840411120       -1.9274857679
 H          1.5721831975       -2.2784914245       -0.1747046931
 H         -1.6830099389        1.5895542906        0.0460145286
 H         -1.8734930800        0.5835639343       -1.3796252673
 H         -1.1572897220        2.7780570457       -2.0683254049
 H          0.1958096407        1.6939359280       -2.3623036874
 H          0.2155551229        2.7726888274       -0.9693802057
 H          1.5900749183        1.1088461057       -0.1536307536
 H          1.5811392503       -0.1987765886        1.0170529813
 H          0.1405414895        1.0950873106        2.5355784716
 H          0.0328882926        2.4075927734        1.3630838471
 H          1.5787099741        2.0076437537        2.1022553867
  29
        -29.47847765
 C         -1.8333936307       -0.9057379541        1.5595500032
 C         -0.8081532685       -1.2484774306        0.4797100026
 C          0.1445345240       -0.1243922869        0.0014570706
 C          1.4548453523       -0.7853950854       -0.4899813002
 C          1.3067525498       -1.8660910356       -1.5576819912
 C         -0.4584807058        0.6627719378       -1.1794485932
 C         -1.7092448276        1.4881394505       -0.8968488291
 C          0.4909322382        0.7988024516        1.1874949940
 C          1.4741769171        1.9296099129        0.8973625570
 H         -2.4531018426       -0.0581301535        1.2858787003
 H         -1.3504809438       -0.6877774211        2.5083512385
 H         -2.4862307295       -1.7643210660        1.7097855035
 H         -1.3437623897       -1.6339735786       -0.3901361732
 H         -0.1972845318       -2.0646320373        0.8738539391
 H          1.9597889569       -1.2241745546        0.3747480086
 H          2.1086151829       -0.0101499512       -0.8927260814
 H          0.8731554359       -1.4659333166       -2.4701154806
 H          0.6878949528       -2.6895104469       -1.2126630419
 H          2.2892733043       -2.2648079590       -1.8035619918
 H         -0.7025037671       -0.0467667777       -1.9724220081
 H          0.3121792392        1.3288847570       -1.5735565112
 H         -2.5512142576        0.8513534866       -0.6411998205
 H         -1.9781118579        2.0494113552       -1.7904755999
 H         -1.5480334176        2.1997972529       -0.0919061777
 H          0.9071969833        0.1780821302        1.9852416405
 H         -0.4270000187        1.2452013657        1.5681875132
 H          1.6079465880        2.5278590354        1.7969829513
 H          1.1042554429        2.5842878122        0.1130770280
 H          2.4489401972        1.5503193630        0.6034235858
  29
        -29.47831479
 C         -1.3115063257       -1.7392265809        1.6790788624
 C         -1.4513066272       -0.5625308369        0.7169185712
 C         -0.1329832417        0.0247976872        0.1591432538
 C          0.5790817056       -1.0681027256       -0.6718500207
 C          1.5102916647       -0.6118497529       -1.7937196172
 C         -0.4829069661        1.2680904987       -0.6835957411
 C         -1.5321113834        1.0577748943       -1.7733141087
 C          0.7249709325        0.4658275720        1.3658359117
 C          2.0395995513        1.1805957070        1.0703042388
 H         -2.2993518422       -2.1328973112        1.9115015432
 H         -0.8460456891       -1.4415781973        2.6145343977
 H         -0.7257032357       -2.5409183169        1.2376091685
 H         -1.9979027049        0.2363102327        1.2248581617
 H         -2.0620743335       -0.8949037850       -0.1235703003
 H         -0.1823788300       -1.7092049100       -1.1230662744
 H          1.1558947501       -1.6919450494        0.0144725285
 H          0.9633332442       -0.1142197225       -2.5893734574
 H          1.9992586015       -1.4852210880       -2.2231895344
 H          2.2823859738        0.0617120311       -1.4366733945
 H          0.4263978257        1.6435076958       -1.1512250246
 H         -0.8440248885        2.0470892966       -0.0068503559
 H         -2.5232443629        0.9198507584       -1.3495516413
 H         -1.2984059127        0.1935323325       -2.3888347631
 H         -1.5667537971        1.9340441316       -2.4183288819
 H          0.9607015009       -0.4164448611        1.9628907616
 H          0.1109243022        1.1253504724        1.9855516398
 H          1.8905704547        2.0623478671        0.4535571854
 H          2.7452121416        0.5184752412        0.5770818140
 H          2.4889266716        1.5018740730        2.0087105850
  29
        -29.47816140
 C         -1.0972183216       -1.4855333421        1.7791395315
 C         -1.2689778060       -0.4541219149        0.6664727355
 C         -0.0011935341       -0.1282292911       -0.1469421024
 C          0.5559265341       -1.4519533320       -0.7236783500
 C          1.7374930552       -1.3192652432       -1.6804471723
 C         -0.3833721682        0.7717127604       -1.3463051584
 C         -1.3274552266        1.9441231565       -1.0933434084
 C          1.1012642533        0.5113233544        0.7272401579
 C          0.6791858091        1.5572671718        1.7558396609
 H         -2.0086821748       -1.5331754786        2.3725224983
 H         -0.2770654461       -1.2218693708        2.4411716439
 H         -0.9113164964       -2.4780990667        1.3778018901
 H         -1.6465615846        0.4668101485        1.1095394805
 H         -2.0315644418       -0.8200941527       -0.0262052357
 H         -0.2544234503       -1.9686040378       -1.2448755511
 H          0.8703189266       -2.0884568642        0.1047468395
 H          2.0728563228       -2.3109972136       -1.9784238266
 H          2.5730051849       -0.8118909784       -1.2060350246
 H          1.4654176289       -0.7750242009       -2.5803466321
 H         -0.8542661006        0.1348152957       -2.1004488504
 H          0.5343253629        1.1699163777       -1.7831354252
 H         -1.4884476391        2.4745759948       -2.0306381722
 H         -0.9145926333        2.6509614292       -0.3809320297
 H         -2.2952199588        1.6091327500       -0.7312680481
 H          1.8363877673        0.9714417857        0.0636843283
 H          1.6145003797       -0.2892655938        1.2659303395
 H          1.5655079986        1.9192588391        2.2751007457
 H          0.0054989943        1.1411665921        2.4993018099
 H          0.1961287616        2.4109719150        1.2916416065
  29
        -29.47755001
 C         -1.0315706196       -1.6353306815        1.7242735343
 C         -1.2831406694       -0.3547456403        0.9333676101
 C         -0.1356079472        0.2133697484        0.0660147136
 C          0.4886508158       -0.9067752591       -0.7818210764
 C          1.5318076694       -0.4503671222       -1.7981692735
 C         -0.7527436507        1.3163197139       -0.8317580822
 C         -1.7404908847        0.8671218490       -1.9051244683
 C          0.9230832908        0.9400534581        0.9310750237
 C          1.9425802453        0.0972538667        1.6921622497
 H         -1.9474691849       -1.9126690227        2.2441417224
 H         -0.2547352282       -1.5106920572        2.4710575773
 H         -0.7581742726       -2.4588391859        1.0707129738
 H         -1.5971491869        0.4260067727        1.6310942595
 H         -2.1303545036       -0.5568701255        0.2760077717
 H         -0.3126823748       -1.4292885190       -1.3084894774
 H          0.9571844252       -1.6291082907       -0.1133260461
 H          1.9493373825       -1.3183914347       -2.3057731908
 H          2.3470830060        0.0807563842       -1.3145777031
 H          1.0988922417        0.2010233165       -2.5521040761
 H          0.0566018541        1.8542835234       -1.3288068286
 H         -1.2562902656        2.0333717668       -0.1778088554
 H         -1.2771894384        0.1855631513       -2.6128081725
 H         -2.0874477927        1.7388178228       -2.4570821129
 H         -2.6128329070        0.3790420565       -1.4785999469
 H          0.3922529884        1.5702570371        1.6493644542
 H          1.4855152290        1.6137349549        0.2796480951
 H          2.5295563417       -0.5232684800        1.0212913752
 H          1.4744614506       -0.5420144512        2.4329509656
 H          2.6278461821        0.7627107204        2.2153604209
  29
        -29.47515094
 C         -2.0821643766       -0.6728146831        1.5927515724
 C         -1.1351429693       -1.2125603042        0.5218347639
 C         -0.0042134639       -0.2844170271        0.0000502383
 C          1.0988324827       -1.2456296921       -0.5216036170
 C          2.0610278356       -0.7343447766       -1.5929445366
 C         -0.4966716498        0.5812391488       -1.1754844187
 C         -1.7120429268        1.4688519332       -0.9286668809
 C          0.5136642580        0.5664086947        1.1754877963
 C          1.7549894427        1.4173177202        0.9285958520
 H         -1.5623281994       -0.5130229953        2.5334612997
 H         -2.8665439623       -1.4072798519        1.7692105892
 H         -2.5545803909        0.2581535600        1.2997263919
 H         -1.7266094675       -1.5352948820       -0.3384037423
 H         -0.6666667118       -2.1067624208        0.9422341166
 H          0.6042245742       -2.1258670481       -0.9415376031
 H          1.6807741818       -1.5852512810        0.3386329711
 H          2.8237213592       -1.4914081615       -1.7689404350
 H          2.5602854522        0.1827209668       -1.3005807799
 H          1.5459335437       -0.5601792465       -2.5337146893
 H         -0.7334985416       -0.0887355327       -2.0061774370
 H          0.3246092475        1.2214900581       -1.4982427101
 H         -1.8803360684        2.0948866930       -1.8037059822
 H         -1.5612739197        2.1246893589       -0.0752714781
 H         -2.6091411634        0.8777657159       -0.7685902259
 H          0.7303269855       -0.1101694461        2.0063370592
 H         -0.2881858983        1.2309349869        1.4980399715
 H          2.6339950617        0.7996765396        0.7684050998
 H          1.9420060400        2.0380102072        1.8036398361
 H          1.6238011668        2.0773902477        0.0752302375
  29
        -29.47391167
 C         -1.4830720108       -1.5405102073        1.0202135018
 C         -0.5914181474       -0.3186599206        1.2238207751
 C          0.3446115944        0.1103487679        0.0737298017
 C          1.0437946193       -1.0990769566       -0.5935553120
 C          0.3208337688       -1.8311375551       -1.7205175732
 C         -0.3379456110        1.0274187056       -0.9649048385
 C         -1.7714350452        0.7114216785       -1.3805757197
 C          1.5037353475        0.9308580937        0.7056871073
 C          1.1132721024        2.0526060689        1.6644831939
 H         -2.1599853328       -1.4215445631        0.1813818360
 H         -2.0847035990       -1.6881933559        1.9164118871
 H         -0.8902141081       -2.4384830918        0.8702417752
 H          0.0371846602       -0.5328900537        2.0925951404
 H         -1.2231219311        0.5330346634        1.4829877979
 H          1.2926719446       -1.8176996339        0.1910568587
 H          1.9915710566       -0.7429049018       -1.0079084867
 H          0.9453172201       -2.6565197305       -2.0601924429
 H          0.1527184055       -1.1741785673       -2.5693086897
 H         -0.6305157483       -2.2423205170       -1.4017048273
 H          0.2928783904        1.0476726858       -1.8570385428
 H         -0.3468557745        2.0429905737       -0.5645198775
 H         -1.8630230529       -0.2732506353       -1.8260542477
 H         -2.0939292299        1.4439221866       -2.1196517953
 H         -2.4473305679        0.7783174923       -0.5324570426
 H          2.0918648072        1.3642155582       -0.1075182735
 H          2.1558831789        0.2396610877        1.2459114293
 H          0.4303807842        2.7609756697        1.2024138427
 H          2.0074549179        2.5975888616        1.9608202518
 H          0.6450722064        1.6639796661        2.5643218516
  29
        -29.47390471
 C         -0.8253636917       -2.2400266204        1.3527883282
 C         -1.3436718907       -0.9747192909        0.6765485898
 C         -0.3223847157        0.0094749136        0.0491183885
 C          0.4082687588       -0.6267746440       -1.1515908409
 C          1.6103679404       -1.5223372696       -0.8546223825
 C         -1.1988888538        1.2066485460       -0.4214361849
 C         -0.7063694711        2.0791113109       -1.5751112160
 C          0.6511273196        0.4630489395        1.1534918183
 C          1.5939798022        1.6066868312        0.7937854084
 H         -0.4217688689       -2.9406477230        0.6279848751
 H         -1.6535861875       -2.7334113113        1.8592397814
 H         -0.0650401898       -2.0195247980        2.0963377185
 H         -1.9177275709       -0.4113401883        1.4180886611
 H         -2.0434015078       -1.2812869501       -0.1056695677
 H          0.7721939474        0.1675181833       -1.8018060393
 H         -0.3253985303       -1.2006407228       -1.7235006670
 H          1.9598357800       -1.9616513128       -1.7879987974
 H          1.3711748873       -2.3313410877       -0.1737782078
 H          2.4316383699       -0.9505470676       -0.4312001949
 H         -1.3704938583        1.8462569947        0.4475252402
 H         -2.1749628280        0.8177492225       -0.7225183730
 H         -1.3587690264        2.9470924391       -1.6585952764
 H         -0.7519424288        1.5438820079       -2.5204381546
 H          0.3072283409        2.4358053897       -1.4253026824
 H          1.2536916114       -0.3917458416        1.4597839551
 H          0.0600724791        0.7678685326        2.0216487549
 H          2.3117706208        1.7517223845        1.5998349279
 H          1.0512557976        2.5384921425        0.6625191207
 H          2.1483941639        1.3924896259       -0.1159080248
