%chk=monomer.chk
%nprocshared=4
%mem=8000mb
#T wB97XD/def2svpp opt=tight freq int(grid=ultrafine) scf=(verytight,qc) Volume=tight

Monomer

0 1
 O         -0.8676647856        1.8295490900        1.6563827677
 C         -0.0224462750        0.7774792991        1.2640889775
 C          0.0470701925        0.5881433311       -0.2706892754
 C          0.7175426725        1.8325188811       -0.9072685004
 O         -0.0423177058        2.9939873926       -0.7531652181
 C          0.8228384960       -0.6803717417       -0.6056749689
 Br         2.6432957911       -0.6703692042        0.0858059487
 C         -1.3471788820        0.4861457683       -0.8889072948
 Br        -2.4851533199       -0.8535054627       -0.0317414201
 H         -1.7826575937        1.5257241999        1.6502984498
 H         -0.3213236171       -0.1654539573        1.7385511983
 H          0.9723446703        1.0411412110        1.6348767287
 H          0.8298796256        1.6848575777       -1.9864352210
 H          1.7185722736        1.9567246385       -0.4704112298
 H         -0.2105764862        3.1207370127        0.1939935670
 H          0.9143830967       -0.8101932075       -1.6844561464
 H          0.3433310676       -1.5583021282       -0.1705609405
 H         -1.2858235646        0.2066479101       -1.9403750060
 H         -1.8660476024        1.4413772438       -0.8049548072



