#T wB97XD/def2svpp opt=tight freq int(grid=ultrafine) scf=(verytight,qc)

Comment gs min

0 1
O          2.71045       -0.88869        0.98236
C          2.27126        0.08920        0.03526
C          2.82168        1.49334        0.37718
C          2.26733        2.49432       -0.65894
O          0.84345        2.51274       -0.64761
C          2.34204        1.88951        1.79092
O          2.94678        1.08839        2.80221
C          4.36828        1.45156        0.31488
O          4.79199        1.12682       -1.00331
Cl         5.16166        3.00126        0.70612
H          2.37274       -1.74712        0.67442
H          1.17543        0.07978        0.05475
H          2.59037       -0.23504       -0.96143
H          2.59905        2.25443       -1.67640
H          2.59889        3.51447       -0.44126
H          0.53143        1.99894       -1.41108
H          1.25785        1.78208        1.88341
H          2.57830        2.93415        2.01582
H          2.87814        0.15397        2.50358
H          4.79267        0.69965        0.98747
H          5.58916        1.67353       -1.13430
