%nprocshared=8
%mem=20GB
# opt=(calcall,tight,maxstep=3) wb97xd scf=(qc,verytight) def2svpp
int=grid=ultrafine

dimer

0 1
 Br                 1.76653180   -1.84111580    0.12794119
 C                  2.35526280   -0.00041780   -0.00252681
 Br                 4.16572780    0.04917520   -0.69448181
 Br                 1.18273480    0.97747020   -1.19195581
 Br                 2.32158080    0.81498220    1.75751719
 Br                -4.35446400   -0.37347400    0.59004100
 C                 -2.54473500   -0.00188700    0.00187500
 Br                -1.95582300   -1.40671500   -1.19445000
 Br                -2.51308400    1.69807600   -0.93235800
 Br                -1.37104300    0.08176000    1.53856800

