%chk=monomer.chk
%nprocshared=4
%mem=8000mb
#T wB97XD/def2svpp opt=(calcall,tight) int(grid=ultrafine) scf=(verytight,qc) Volume=tight

Monomer

0 1
C       -0.448243    1.753139   -0.231025
C       -0.283530    0.325621    0.245562
C       -0.511797    0.137841    1.732891
Cl       -1.384429   -0.755029   -0.682660
N        1.136847   -0.180518   -0.095408
O        1.791318    0.479696   -0.864967
O        1.487490   -1.208326    0.428894
H       -0.273688    1.833149   -1.312556
H        0.265316    2.410197    0.292657
H       -1.473543    2.084497   -0.002739
H       -0.377383   -0.915092    2.016620
H       -1.535495    0.457168    1.983080
H        0.203114    0.758641    2.300036



