%nprocshared=4
%mem=8000mb
%chk=19.chk
%nprocshared=4
%mem=8000mb
#T wB97XD/def2svpp opt=tight freq int(grid=ultrafine) scf=(verytight,qc) Volume=tight

Monomer

0 1
 C         -0.8955550494       -0.8881849508       -1.2525768352
 C         -0.8955600917       -0.0108775690        0.0000012764
 C         -2.1386946239        0.8851734585        0.0000596921
 C         -0.8950992215       -0.8877159474        1.2529070107
 C          0.3290964491        0.9081722414       -0.0003885336
 Cl         1.8655317699        0.0049252494       -0.0000065440
 H         -1.7722810638       -1.5309780183       -1.2612054952
 H         -0.0084453724       -1.5156376114       -1.2779426438
 H         -0.9095977263       -0.2742239863       -2.1506545722
 H         -3.0369761762        0.2732069048       -0.0002286003
 H         -2.1571855630        1.5210503769       -0.8822287467
 H         -2.1574253320        1.5205409903        0.8826990079
 H         -0.0086293870       -1.5161069834        1.2775163477
 H         -1.7725088271       -1.5295626491        1.2627519929
 H         -0.9074847478       -0.2734031546        2.1507720394
 H          0.3430951391        1.5371592449        0.8902082052
 H          0.3430959162        1.5364478925       -0.8914884558



