  36
        -41.02838194
 C          4.2326107456        0.3392810457        0.2513370533
 C          2.8178786284       -0.1805324474       -0.0215917737
 C          2.8865278275       -1.6401539792       -0.4970325099
 N          2.0312069833       -0.0245635625        1.1972316019
 C          2.1249827788        0.6721314385       -1.1130009001
 N          1.8012683407        2.0284608787       -0.7107356903
 H          4.7297246503       -0.2888492717        0.9879833719
 H          4.1911641511        1.3513641118        0.6467410063
 H          4.8235695085        0.3374618994       -0.6614497137
 H          1.8812450812       -2.0284079974       -0.6493412767
 H          3.3864298990       -2.2580922252        0.2475960385
 H          3.4352870224       -1.7153517557       -1.4328834057
 H          1.0888184127       -0.3871750607        1.0487836052
 H          2.4499818833       -0.5596542384        1.9506366946
 H          1.1842484218        0.1835803202       -1.3821310239
 H          2.7550367589        0.7137562774       -2.0047913155
 H          2.6570243392        2.5566948193       -0.5706671948
 H          1.3392538904        1.9771410948        0.1936555960
 C         -3.7665288614       -1.3617770873       -0.0896391949
 C         -3.0086438641       -0.0327506563       -0.0346277928
 C         -3.5204970007        0.9016920740       -1.1405805032
 N         -3.1842250358        0.5272290553        1.3039241996
 C         -1.4901790743       -0.2560838047       -0.2251736842
 N         -0.8539287624       -1.0255197410        0.8305601807
 H         -3.5524111418       -1.8839375865       -1.0188595294
 H         -4.8387595339       -1.1867919950       -0.0302651378
 H         -3.4826686023       -1.9931216879        0.7489981809
 H         -4.5826933899        1.1021114446       -1.0063909250
 H         -3.3762029851        0.4505171351       -2.1188835210
 H         -2.9829754939        1.8482017749       -1.1173875026
 H         -2.7291781453        1.4327023898        1.3640843292
 H         -4.1694699996        0.6616778185        1.5034937247
 H         -0.9972996532        0.7209006543       -0.2549074195
 H         -1.3108596757       -0.7557240712       -1.1801296157
 H         -1.1698751470       -1.9898618604        0.7960763258
 H         -1.1619481818       -0.6436605569        1.7215650639
