  36
        -41.02835116
 C          3.7110173341        0.9647626387       -1.0244428053
 C          3.0348848949       -0.0862197351       -0.1399220453
 C          3.5132876949       -1.4883921140       -0.5449149656
 N          3.3421901438        0.2360861651        1.2517355607
 C          1.4962570015       -0.0176303572       -0.2822850094
 N          0.8982029720        1.2266510568        0.1676357087
 H          3.3874224939        0.8591923908       -2.0569958754
 H          4.7921931497        0.8489839586       -0.9872745685
 H          3.4686730906        1.9651704122       -0.6738385636
 H          3.0299417912       -2.2473323840        0.0681598319
 H          4.5914375130       -1.5732178917       -0.4156232846
 H          3.2751367140       -1.6870030814       -1.5867623641
 H          2.9463685555       -0.4670279350        1.8677532411
 H          4.3457612343        0.2464455359        1.3979532300
 H          1.0561735895       -0.8212205295        0.3171949499
 H          1.2191847562       -0.1809001575       -1.3268646846
 H          1.1822222305        1.9886303460       -0.4402365695
 H          1.2619673055        1.4330796645        1.0943415091
 C         -4.2724042489        0.1919915981        0.2035500692
 C         -2.7835227409        0.2040448823       -0.1558555216
 C         -2.5936565330        0.8314479882       -1.5459272454
 N         -2.0673803696        0.9276938253        0.8889662359
 C         -2.2167096911       -1.2374236001       -0.1737683377
 N         -2.1316017329       -1.8766054461        1.1257302674
 H         -4.8299615660       -0.4264734797       -0.4957794457
 H         -4.6762319338        1.2021088649        0.1718259806
 H         -4.4127490245       -0.1939130246        1.2103773515
 H         -3.0924191600        0.2374609574       -2.3082393899
 H         -1.5335426444        0.8883279475       -1.7851325278
 H         -3.0068433938        1.8388984386       -1.5669152953
 H         -1.0761434420        0.9889216417        0.6517998380
 H         -2.4222475702        1.8756520899        0.9584035509
 H         -1.2023248723       -1.2015199707       -0.5808580935
 H         -2.8252881652       -1.8640410175       -0.8306175338
 H         -3.0655468277       -2.0257066162        1.4950783501
 H         -1.6677297793       -1.2290791653        1.7574944228
