  36
        -41.02868029
 C          2.3314866509        1.7105407432        0.0704012946
 C          2.6395503500        0.2158238064        0.1747774918
 C          4.1153306028        0.0186607300        0.5558425135
 N          1.7428082626       -0.3572797077        1.1811955303
 C          2.3789701061       -0.4992182419       -1.1788469260
 N          1.0860532817       -0.3121849604       -1.7943178931
 H          2.8834647820        2.1539336308       -0.7545237094
 H          2.6142225731        2.2203143596        0.9897316157
 H          1.2673812493        1.8634673209       -0.0892913426
 H          4.7672201480        0.4888883739       -0.1756648118
 H          4.3584170371       -1.0420573419        0.5999486117
 H          4.3190418716        0.4607836474        1.5308193954
 H          1.9425621915       -1.3468379785        1.2921256583
 H          1.9022076888        0.0915001590        2.0784837651
 H          2.5145786885       -1.5751786808       -1.0274224710
 H          3.1406691691       -0.1641189156       -1.8899819984
 H          0.9398015298        0.6684752934       -2.0067202527
 H          0.3431179832       -0.6077386115       -1.1627858219
 C         -2.6612150129       -0.0360219195        2.0316606714
 C         -2.2286384412       -0.0147823364        0.5570836498
 C         -1.8395575216        1.4116160624        0.1616279601
 N         -1.0819317407       -0.8792899114        0.3006235868
 C         -3.3965749669       -0.5271671181       -0.3235968144
 N         -3.0967330661       -0.6664461319       -1.7337242188
 H         -3.5165238490        0.6158805243        2.1911031504
 H         -1.8442036537        0.3016346506        2.6677348282
 H         -2.9382930941       -1.0453412375        2.3323246677
 H         -2.6954687896        2.0770256282        0.2445028866
 H         -1.4730887989        1.4314853228       -0.8620516898
 H         -1.0500536761        1.7767080174        0.8152223636
 H         -0.2672624056       -0.5755761677        0.8347740233
 H         -1.2964501801       -1.8340964441        0.5690125097
 H         -4.2529140186        0.1434687488       -0.2169897972
 H         -3.6959594335       -1.5158645000        0.0407261685
 H         -2.2446511830       -1.2099239508       -1.8363745588
 H         -2.9205787217        0.2437228910       -2.1455593427
