  36
        -41.02848463
 C          2.0574218843       -0.2113250723        1.0602818448
 C          2.3813874304       -0.1636143978       -0.4340973786
 C          3.5305951475       -1.1331829256       -0.7461203080
 N          1.1613712028       -0.5062577121       -1.1701234259
 C          2.7993752001        1.2662019446       -0.8611195759
 N          1.7785970574        2.2865356319       -0.7542619071
 H          1.7576441580       -1.2154851664        1.3521122633
 H          1.2368787895        0.4625451528        1.2915228283
 H          2.9285297172        0.0753780147        1.6436248464
 H          4.4292872975       -0.8457580937       -0.2068118787
 H          3.7554524676       -1.1307574615       -1.8120861211
 H          3.2619048322       -2.1467700005       -0.4513908328
 H          1.3333153583       -0.4535873950       -2.1701521327
 H          0.8921656259       -1.4615597891       -0.9549733065
 H          3.1181320597        1.2375957744       -1.9088696838
 H          3.6561578843        1.5782648068       -0.2590250882
 H          1.4936780216        2.4005173456        0.2123270852
 H          0.9579404020        1.9963241441       -1.2751768467
 C         -3.6583604465        0.5626880465        0.6692887173
 C         -2.4108601711       -0.1195253192        0.1006486097
 C         -2.7075862074       -0.6331244378       -1.3173972626
 N         -1.3107078600        0.8390828076        0.1289161132
 C         -1.9886289114       -1.3145250507        0.9907826823
 N         -1.5830675440       -0.9672543599        2.3378927098
 H         -4.4640754750       -0.1567858683        0.7940227123
 H         -3.9968023934        1.3491528558       -0.0025188907
 H         -3.4334676792        1.0170092207        1.6313213881
 H         -3.5131218349       -1.3632985808       -1.3015456865
 H         -1.8212101764       -1.1026944207       -1.7403038678
 H         -3.0020321198        0.1916479842       -1.9649333758
 H         -0.4865222783        0.4227710572       -0.3058905401
 H         -1.5594681363        1.6669176557       -0.4030862197
 H         -1.1350972694       -1.8096343494        0.5170088882
 H         -2.8083009549       -2.0348054659        1.0498055269
 H         -2.3786697860       -0.6103894124        2.8570667200
 H         -0.9041057638       -0.2140940216        2.2780226691
