  36
        -41.02862524
 C          4.1563054724        0.2795513878        0.6437383224
 C          2.8117365319       -0.0773476734        0.0020113658
 C          3.0513213606       -0.9471419614       -1.2424104750
 N          1.9906237644       -0.7447531290        1.0058666496
 C          2.0520236056        1.2045220525       -0.4185352282
 N          1.5973144536        2.0332630680        0.6822604871
 H          4.7073242565       -0.6254485504        0.8915575912
 H          3.9968569673        0.8373667867        1.5633067534
 H          4.7585895260        0.8772833161       -0.0363236619
 H          3.6235603320       -0.4020041289       -1.9894529571
 H          2.0998037951       -1.2440588335       -1.6792274812
 H          3.6025037235       -1.8472843767       -0.9742519457
 H          2.4374111377       -1.6055387654        1.3033464333
 H          1.0841267440       -0.9868327594        0.6046443562
 H          1.1643878700        0.9047819471       -0.9835844161
 H          2.6832751059        1.8099420503       -1.0737395318
 H          2.3973602650        2.4394763106        1.1573220186
 H          1.1357578643        1.4251867139        1.3539858004
 C         -3.0436000576        0.4361912859       -1.5168183440
 C         -2.9835530220       -0.0796486792       -0.0767201319
 C         -3.7071409584        0.9050631825        0.8534531915
 N         -3.5742601956       -1.4170192935       -0.0538112679
 C         -1.5162623303       -0.2253782149        0.3891174792
 N         -0.7378145803       -1.2085379000       -0.3451500544
 H         -2.6497600424       -0.3104785679       -2.2024110951
 H         -2.4668201397        1.3522849471       -1.6150827658
 H         -4.0734463122        0.6418682997       -1.8014726133
 H         -3.2376119745        1.8841148525        0.8086086924
 H         -3.6707156499        0.5536223872        1.8835503773
 H         -4.7511163012        1.0076653892        0.5601207419
 H         -3.6086567120       -1.7663460836        0.8988330458
 H         -4.5250667118       -1.3872011054       -0.4059244928
 H         -1.5089342972       -0.5307720241        1.4403146457
 H         -1.0134260077        0.7409110552        0.3133554495
 H         -0.6599410457       -0.9231240672       -1.3166202127
 H         -1.2439194218       -2.0899536397       -0.3359030194
