  36
        -41.02893100
 C          3.9940197841        0.6482081410        0.0242538895
 C          2.7342459506       -0.2123023646       -0.1087479709
 C          3.1087166951       -1.5991032648       -0.6538035703
 N          2.0910251570       -0.2744188001        1.1997541241
 C          1.7212964376        0.4529508990       -1.0712619214
 N          1.1237591003        1.6776014848       -0.5689001419
 H          4.7188456645        0.1579150020        0.6708446921
 H          3.7462204560        1.6104204617        0.4659296156
 H          4.4512299541        0.8095312386       -0.9489906027
 H          2.2238408161       -2.2303309903       -0.7171893362
 H          3.8300322223       -2.0820718429        0.0036825432
 H          3.5472831943       -1.5168723250       -1.6454780718
 H          1.2509434153       -0.8457593055        1.1581879555
 H          2.7165986758       -0.6926784856        1.8792703519
 H          0.9055238869       -0.2563007090       -1.2465132023
 H          2.1993926588        0.6581583773       -2.0318019387
 H          1.8082601934        2.4271478760       -0.5878156524
 H          0.8904698486        1.5205320877        0.4093627861
 C         -3.9649756027       -0.0874768491        0.8128196454
 C         -2.7416323669        0.0757164887       -0.0937806229
 C         -3.1862970404        0.1058153551       -1.5641235012
 N         -2.0405746545        1.2906546438        0.3091405936
 C         -1.7530836642       -1.0971758822        0.1112692948
 N         -1.0935055201       -1.1141382953        1.4049716087
 H         -4.4611415889       -1.0352175641        0.6181506705
 H         -4.6748101188        0.7181149755        0.6367999644
 H         -3.6655679366       -0.0494765848        1.8574379258
 H         -3.8948973287        0.9161400067       -1.7286899038
 H         -3.6637356828       -0.8312089748       -1.8408736403
 H         -2.3268912956        0.2624167638       -2.2140252792
 H         -1.2224674392        1.4407305142       -0.2757775880
 H         -2.6469582104        2.0967003465        0.2059422359
 H         -0.9697688580       -1.0158340451       -0.6495865750
 H         -2.2680745641       -2.0490120038       -0.0376293598
 H         -1.7545596927       -1.3902458887        2.1243369898
 H         -0.8160807870       -0.1577862122        1.6156639848
