  36
        -41.02857990
 C          2.4642238942        0.3570078654        1.1161452471
 C          2.4823452713       -0.0838926634       -0.3493503342
 C          3.6867781551       -1.0041998304       -0.5951491485
 N          1.2104570396       -0.7521158987       -0.6324938688
 C          2.5835546702        1.1396799607       -1.2954071150
 N          1.4616837008        2.0538502718       -1.2682515097
 H          2.4614519187       -0.5133097772        1.7691746675
 H          1.5712036708        0.9384959262        1.3311927277
 H          3.3429812435        0.9561395786        1.3407926586
 H          4.6156464690       -0.4818426006       -0.3814780830
 H          3.7105338448       -1.3349129173       -1.6326941892
 H          3.6297272282       -1.8825579345        0.0462974456
 H          1.2007685149       -1.0890233071       -1.5908460023
 H          1.0990187976       -1.5556420170       -0.0216834198
 H          2.6789606712        0.7773317977       -2.3244918409
 H          3.4878035592        1.7030316185       -1.0528147078
 H          1.3701116710        2.4666299644       -0.3462548304
 H          0.6081380102        1.5391074577       -1.4592232567
 C         -3.6103729652        0.6294252479        0.8656855138
 C         -2.3963949100       -0.0029225222        0.1793238445
 C         -2.5882924278        0.0342730209       -1.3452580132
 N         -1.2023664004        0.7175462677        0.6081287354
 C         -2.2165668173       -1.4738215703        0.6287340290
 N         -1.8381210150       -1.6490720424        2.0175007292
 H         -4.5101146337        0.0569020127        0.6541055153
 H         -3.7552751035        1.6479679378        0.5110830785
 H         -3.4564770625        0.6671209366        1.9414104032
 H         -3.4659652075       -0.5375127869       -1.6365276457
 H         -1.7180838661       -0.3900029776       -1.8435285616
 H         -2.7160403144        1.0607739779       -1.6865934735
 H         -0.3807022185        0.2976817627        0.1720171891
 H         -1.2595837855        1.6876323435        0.3154146497
 H         -1.4248749119       -1.9226183548        0.0202414099
 H         -3.1395317181       -2.0292968015        0.4461351593
 H         -2.6017193987       -1.3610302647        2.6209605752
 H         -1.0586977829       -1.0260441687        2.2108484057
