  36
        -41.02967142
 C          2.2175850705       -0.8280751759        0.9573856053
 C          2.4089364355       -0.3094002055       -0.4687528942
 C          3.6920624362       -0.9059295792       -1.0681970033
 N          1.2267614385       -0.6822230020       -1.2505143162
 C          2.5268503778        1.2369633217       -0.4836106519
 N          1.4542035444        1.9833730589        0.1335618299
 H          1.2719513601       -0.4835871159        1.3675222313
 H          3.0268410170       -0.4810515867        1.5947953462
 H          2.2155949164       -1.9166651187        0.9651605674
 H          4.5547905313       -0.6493475312       -0.4591845535
 H          3.8571580104       -0.5235931087       -2.0747557848
 H          3.6189422117       -1.9919334647       -1.1186696246
 H          1.3440232573       -0.3811225852       -2.2136252995
 H          1.1233499111       -1.6926490135       -1.2544294096
 H          2.5953855883        1.5660404276       -1.5261758267
 H          3.4590599138        1.5152300194        0.0160541156
 H          1.4026962504        1.7667068189        1.1230817542
 H          0.5637710064        1.7322432370       -0.2856212580
 C         -3.6955130315        0.6247821057        0.2149297390
 C         -2.4318159771       -0.2120644967       -0.0032707626
 C         -2.7851591328       -1.4841149301       -0.7900995113
 N         -1.4466537342        0.6163340921       -0.6909963614
 C         -1.8017716938       -0.6168561617        1.3510872153
 N         -1.3185115126        0.4909729607        2.1537345636
 H         -4.4055735278        0.0887095952        0.8401500469
 H         -4.1708026537        0.8453022972       -0.7388706672
 H         -3.4426650578        1.5693938514        0.6905178783
 H         -3.5075701923       -2.0858763000       -0.2440115914
 H         -1.8917269744       -2.0834283114       -0.9572757599
 H         -3.2129542709       -1.2248458627       -1.7576047470
 H         -0.6023007501        0.0709585081       -0.8773809701
 H         -1.8165475621        0.9342873623       -1.5804312348
 H         -0.9447762460       -1.2664494477        1.1448358669
 H         -2.5236146841       -1.1875049555        1.9397698493
 H         -2.1032548801        1.0187510137        2.5218943206
 H         -0.8048408710        1.1192336436        1.5410839865
