  34
        -41.76138186
 C          4.0535912442       -0.3730065023       -0.4498224052
 C          2.7767352757        0.4262908967       -0.1862138990
 C          3.1323984443        1.7923838385        0.4091196822
 C          2.0028663140        0.6263944310       -1.4897799132
 C          1.9020696922       -0.2959660053        0.8408720866
 Cl         1.3787638359       -1.9061930433        0.2867139794
 H          4.6821979390        0.1483393714       -1.1675562132
 H          3.8131366066       -1.3538903856       -0.8524647568
 H          4.6193919197       -0.5067757149        0.4700077581
 H          3.7537499812        2.3506345645       -0.2863988782
 H          3.6795280188        1.6778741084        1.3423021775
 H          2.2311657131        2.3687021833        0.6053681347
 H          1.7243312045       -0.3322630644       -1.9205832199
 H          2.6150103716        1.1619849380       -2.2112223096
 H          1.0997143153        1.2041687400       -1.3072484232
 H          0.9950801133        0.2753096928        1.0385698751
 H          2.4462774084       -0.4558942624        1.7722128735
 C         -1.9153088479       -0.7480986260       -1.3308802798
 C         -2.8508432898       -0.3607223294       -0.1856333852
 C         -4.2936963746       -0.7235415668       -0.5534637220
 C         -2.4456822370       -1.0984778545        1.0907432611
 C         -2.8145983900        1.1527872344        0.0415693281
 Cl        -1.1984435391        1.7483789309        0.4720283504
 H         -1.9850089716       -1.8152211535       -1.5248846862
 H         -0.8846212216       -0.5183449095       -1.0775335465
 H         -2.1777607918       -0.2132874336       -2.2415766417
 H         -4.9789125865       -0.4478357894        0.2453696766
 H         -4.3743777877       -1.7946375990       -0.7187481394
 H         -4.6015104282       -0.2126031115       -1.4632450820
 H         -1.4265014249       -0.8476089398        1.3717849487
 H         -2.4971672634       -2.1725709993        0.9332668935
 H         -3.1074135509       -0.8372679317        1.9143414798
 H         -3.4723739863        1.4395946089        0.8633762873
 H         -3.1047246526        1.6892952893       -0.8628963978
