  34
        -41.76034613
 C          3.7021534103       -0.3305674938        1.3204161658
 C          2.5762033996        0.2982292891        0.4987153238
 C          1.8604066623        1.3650655979        1.3339145015
 C          3.1423891032        0.9392131595       -0.7687393264
 C          1.5352153212       -0.7598948347        0.1260367871
 Cl         2.2190879318       -2.0901486184       -0.8428542423
 H          4.4313860476        0.4259806112        1.5994152732
 H          4.2088714071       -1.1014812124        0.7455814371
 H          3.3080266807       -0.7811316097        2.2291304497
 H          2.5598113176        2.1490718113        1.6122777037
 H          1.4504239726        0.9334918649        2.2448121651
 H          1.0497621713        1.8147079259        0.7655026504
 H          3.6308941524        0.1919704585       -1.3889955849
 H          3.8717502484        1.7033010161       -0.5112575288
 H          2.3456360781        1.4021753505       -1.3471483266
 H          0.7439126851       -0.3157561942       -0.4777518513
 H          1.1099885225       -1.2207760668        1.0183695476
 C         -2.6058483027       -1.2807387658       -0.3335319809
 C         -3.0259919034       -0.0159150898        0.4164889654
 C         -4.4974815181       -0.1303276063        0.8290352010
 C         -2.1581462271        0.1709700386        1.6618219524
 C         -2.9071227782        1.2064638700       -0.4975820364
 Cl        -1.2444928594        1.4876528278       -1.0602186885
 H         -2.7024200929       -2.1495041835        0.3125957667
 H         -1.5716078015       -1.2112048881       -0.6596643423
 H         -3.2330649926       -1.4329928731       -1.2093549961
 H         -4.8208897235        0.7611165012        1.3619664162
 H         -4.6328558363       -0.9878939603        1.4828354094
 H         -5.1349647241       -0.2607070634       -0.0425657356
 H         -1.1130978958        0.2823627251        1.3858166842
 H         -2.2524476018       -0.6917061987        2.3165465751
 H         -2.4655922246        1.0568242331        2.2137754860
 H         -3.2089148851        2.1145342894        0.0258329312
 H         -3.5151617825        1.0820958901       -1.3944721423
