  34
        -41.76142972
 C          3.7711809700        0.2992440838        1.2390449576
 C          3.1199705276        0.2873429314       -0.1449007625
 C          3.3783803809        1.6249251210       -0.8460472816
 C          3.6955341662       -0.8535593236       -0.9855453837
 C          1.6038597379        0.1345000858       -0.0138768145
 Cl         1.1406638297       -1.3818774689        0.7992947393
 H          4.8458742569        0.4360821024        1.1475826011
 H          3.5887624314       -0.6388862382        1.7577118457
 H          3.3707727947        1.1107774272        1.8431359046
 H          4.4474751896        1.7838227683       -0.9614248622
 H          2.9685873587        2.4492157102       -0.2669381650
 H          2.9205132803        1.6385612836       -1.8324606657
 H          4.7703667679       -0.7334230746       -1.0965701364
 H          3.2459466429       -0.8636482617       -1.9763615949
 H          3.5056201272       -1.8134702165       -0.5113593747
 H          1.1264418485        0.1150257108       -0.9934856798
 H          1.1800676196        0.9449766884        0.5786580718
 C         -4.1272468701        0.2488206540       -0.8265635787
 C         -2.9218237994       -0.5157314929       -0.2776049524
 C         -3.3953072139       -1.7833639654        0.4408625936
 C         -1.9790037943       -0.8998172918       -1.4186963963
 C         -2.1805480660        0.3353168800        0.7557899453
 Cl        -1.5453375729        1.8509903008        0.0676167506
 H         -4.6652136277       -0.3638976812       -1.5457643443
 H         -3.8070013295        1.1609092155       -1.3243790627
 H         -4.8106957805        0.5161899561       -0.0230915358
 H         -2.5480546392       -2.3355211060        0.8409445397
 H         -3.9279034484       -2.4274003320       -0.2541216545
 H         -4.0651686476       -1.5362379718        1.2615554495
 H         -1.6158475784       -0.0108502753       -1.9289619672
 H         -2.4996214567       -1.5222929154       -2.1422644712
 H         -1.1275205628       -1.4566565309       -1.0345973504
 H         -1.3236074265       -0.2059535529        1.1561908180
 H         -2.8450673668        0.6261331223        1.5700079265
