  34
        -41.76121050
 C          1.7646532996        1.2413170719        0.5828169687
 C          2.9369739185        0.3257688181        0.2307344156
 C          4.1008428796        1.1643588984       -0.3080087895
 C          3.3904390041       -0.4447925614        1.4717061121
 C          2.5342838656       -0.6490582903       -0.8786824250
 Cl         1.2016750154       -1.7244189149       -0.3993482177
 H          2.0643151898        1.9594840177        1.3417132417
 H          0.9295183922        0.6651240517        0.9708259815
 H          1.4251147037        1.7907914625       -0.2921882567
 H          4.4242225382        1.8760107996        0.4470510344
 H          3.7994923290        1.7189944625       -1.1937653769
 H          4.9473892054        0.5322765153       -0.5678614655
 H          2.5796645821       -1.0557799632        1.8609688474
 H          3.6997762202        0.2483063345        2.2498578122
 H          4.2306894608       -1.0950211404        1.2359248853
 H          3.3669640649       -1.3007817079       -1.1469587406
 H          2.1914395134       -0.1112482658       -1.7633304849
 C         -1.9428720585       -0.4090275083        1.5374286757
 C         -2.7226989853       -0.4495015478        0.2227881717
 C         -2.8882913325       -1.9052861523       -0.2251984785
 C         -4.0968769448        0.1959149004        0.4063057360
 C         -1.9394908405        0.2716613144       -0.8764507159
 Cl        -1.6682209655        1.9944580413       -0.5118612465
 H         -2.5020053885       -0.9131456005        2.3218277769
 H         -1.7666110112        0.6184585705        1.8465196751
 H         -0.9850338728       -0.9112761565        1.4218489836
 H         -3.4439381039       -1.9626608467       -1.1585880977
 H         -3.4296557885       -2.4675052212        0.5312936534
 H         -1.9168505851       -2.3719531698       -0.3713490883
 H         -3.9932307061        1.2328757588        0.7160736309
 H         -4.6628640034       -0.3352387580        1.1676801606
 H         -4.6610270317        0.1684021395       -0.5237737299
 H         -2.4808133541        0.2418459847       -1.8225544890
 H         -0.9547711495       -0.1776381772       -1.0007176435
