  34
        -41.76230963
 C          3.9715269264       -0.6677373801       -0.2232608421
 C          2.7594039811        0.2612979670       -0.3056891995
 C          3.2151616870        1.6790536938       -0.6650932289
 C          1.7811430405       -0.2427022290       -1.3671999417
 C          2.0641784187        0.3450775035        1.0548668378
 Cl         1.4254011637       -1.2289104693        1.5944281753
 H          4.4730695819       -0.7175840483       -1.1865729788
 H          3.6645050102       -1.6729253010        0.0556671532
 H          4.6830695304       -0.3063871972        0.5166019956
 H          3.7238610150        1.6729942798       -1.6256329888
 H          3.9015978461        2.0675173581        0.0840770418
 H          2.3614036863        2.3493146727       -0.7323416548
 H          1.4459239040       -1.2492841489       -1.1292272111
 H          2.2623299148       -0.2634298035       -2.3418269243
 H          0.9144350036        0.4110294476       -1.4233796221
 H          1.2146233192        1.0263903808        1.0127515124
 H          2.7590321172        0.6718513915        1.8292170630
 C         -4.0628985899        0.3956367056       -0.6636910967
 C         -2.8398632337       -0.4999925385       -0.4596770426
 C         -3.2756138468       -1.8407223758        0.1403709394
 C         -2.1388139761       -0.7425919819       -1.7969474792
 C         -1.8719541054        0.1422703073        0.5356596105
 Cl        -1.2587909708        1.7179347297       -0.0270948556
 H         -4.7606751153       -0.0725413444       -1.3535776654
 H         -3.7689427305        1.3582509965       -1.0753610880
 H         -4.5756117172        0.5663689844        0.2808900308
 H         -3.9617308698       -2.3448780768       -0.5353725608
 H         -3.7792547454       -1.6928799628        1.0930602685
 H         -2.4157320156       -2.4864191559        0.3030125917
 H         -1.8127204454        0.1973408995       -2.2353210520
 H         -2.8177739363       -1.2276700848       -2.4938279958
 H         -1.2690371242       -1.3811643950       -1.6615169812
 H         -0.9998642668       -0.4920028410        0.6931723240
 H         -2.3633530506        0.3322348934        1.4904719393
