  34
        -79.03950382
 O          2.4815478354        2.4794424038       -1.1314982508
 C          1.7917701509        1.2859643891       -1.2441832014
 C          2.3308703433        0.2003666469       -0.2612098280
 C          3.8790814837        0.1287746421       -0.3094324189
 O          4.3977099462       -0.8404048353        0.5393111954
 N          1.9210035270        0.5496156764        1.1497874171
 O          2.0732866994        1.6982081761        1.4608358689
 O          1.5323062095       -0.3458977157        1.8433637271
 N          1.7377259607       -1.1118556322       -0.6169672076
 O          2.4582275535       -1.9275719369       -1.1294796877
 O          0.5631337353       -1.2571108737       -0.3806880378
 H          2.2927404466        2.8763544711       -0.2660736022
 H          1.9444226859        0.9307766503       -2.2679182417
 H          0.7149498432        1.4046640008       -1.0710854786
 H          4.2674040867        1.0957282966        0.0236827046
 H          4.1766789323       -0.0246567333       -1.3538520592
 H          4.2822803942       -1.7170412622        0.1469541662
 O         -4.8123816638        0.0185805843        0.6577153006
 C         -3.9956696906       -0.0737047667       -0.4560745370
 C         -2.4949252722       -0.2590921297       -0.0853815157
 C         -2.3220055354       -1.4239282300        0.9490777786
 O         -1.3447905436       -1.2046416739        1.8958409706
 N         -1.7756671049       -0.5612110396       -1.3645328479
 O         -1.1893599324        0.3506147989       -1.8916965299
 O         -1.9191884714       -1.6669129495       -1.8033519344
 N         -1.9483277112        0.9980213024        0.4967677277
 O         -2.7445002083        1.8281021542        0.8532181602
 O         -0.7512107465        1.0756321952        0.5881616487
 H         -4.6458962339        0.8626085842        1.1054717841
 H         -4.0865444895        0.8084210527       -1.1061665703
 H         -4.3155574334       -0.9630780227       -1.0077520776
 H         -2.1597051292       -2.3375887733        0.3613186751
 H         -3.2690481657       -1.5048601985        1.4938305162
 H         -0.4542559037       -1.3030148807        1.5272424647
