  34
        -79.03952307
 O          3.0044459386        1.5803085123       -2.0885704061
 C          2.2346765078        0.4516487274       -1.8803521665
 C          2.5373397653       -0.2241937743       -0.5051528682
 C          4.0615689258       -0.3543809505       -0.2590099748
 O          4.3588099843       -0.8914245536        0.9865026367
 N          1.9588396963        0.6242673494        0.6030447038
 O          1.3721532878        0.0520332874        1.4781548586
 O          2.1809231470        1.7987263398        0.5228926711
 N          1.8821013727       -1.5539218094       -0.4680360604
 O          0.6751323595       -1.5622592215       -0.5422190379
 O          2.5845549254       -2.5265476668       -0.3890985572
 H          2.7333231416        2.2752947727       -1.4676201216
 H          2.4952245174       -0.2549835826       -2.6748348583
 H          1.1589143232        0.6634597443       -1.9263067873
 H          4.4894845182        0.6521384662       -0.2897521875
 H          4.4881217313       -0.9399448584       -1.0828966830
 H          4.2117409594       -1.8475399193        0.9783570318
 O         -1.6540197459       -2.1909316168        1.0142834353
 C         -1.7662295712       -0.8829336859        1.4640235649
 C         -2.4822007517        0.0310750378        0.4287721895
 C         -3.7845215792       -0.6260713107       -0.0932064944
 O         -4.4782487618        0.1725667471       -0.9928825330
 N         -2.8507545206        1.3428235616        1.0789785839
 O         -3.3051435260        1.2693387303        2.1855947621
 O         -2.6952568922        2.3311617471        0.4189395287
 N         -1.5497003026        0.3269552882       -0.6901551197
 O         -1.8553018073       -0.0312329599       -1.7979979497
 O         -0.5216931371        0.8873092970       -0.3963652978
 H         -0.8884634763       -2.2782967829        0.4262201073
 H         -0.7935375494       -0.4398677749        1.7129011540
 H         -2.3897346810       -0.9012920589        2.3631406234
 H         -4.4415161340       -0.7821045563        0.7673281599
 H         -3.5171861507       -1.6045036476       -0.5119435805
 H         -4.0156218894        0.1842794968       -1.8428240673
