  34
        -79.03945737
 O          1.7781698248        1.1176304962       -2.2159387578
 C          1.7394618646        1.4651100972       -0.8708180335
 C          2.4322582335        0.3801649975        0.0132743652
 C          3.9440001550        0.2925617078       -0.3038965297
 O          4.6046962343       -0.6800061967        0.4383427273
 N          2.2459459394        0.7822837477        1.4573984749
 O          2.6614302906        1.8707274895        1.7333453652
 O          1.7181091654       -0.0053934132        2.1911497521
 N          1.7697202845       -0.9262985464       -0.2179912512
 O          2.4180569170       -1.8120949835       -0.7068032109
 O          0.6025287019       -1.0012186096        0.0898756051
 H          0.9334438236        0.7244597928       -2.4798809513
 H          0.7187334987        1.6141473716       -0.5069433184
 H          2.3050746209        2.3923329950       -0.7355165080
 H          4.3907649957        1.2535137293       -0.0321703482
 H          4.0452044439        0.1447654374       -1.3862601806
 H          4.4095607615       -1.5559392298        0.0762337921
 O         -4.9330368134       -0.3374736786        0.1622458958
 C         -3.9516595390       -0.4785782848       -0.8025035037
 C         -2.5145966346       -0.3365502430       -0.2179716659
 C         -2.3401827892       -1.2749874139        1.0317553356
 O         -1.5082699041       -0.7752150535        2.0064911258
 N         -1.5687033199       -0.7214700730       -1.3021834954
 O         -0.9448717048        0.1602768693       -1.8471646584
 O         -1.5615394399       -1.8796541301       -1.6088693584
 N         -2.2594469279        1.0714639639        0.1976975728
 O         -3.2140724751        1.8063336787        0.2443160415
 O         -1.1272859926        1.3541485490        0.4832284836
 H         -4.9742312522        0.5902168946        0.4422821848
 H         -4.0693514214        0.2505373606       -1.6169745553
 H         -4.0479118877       -1.4910325590       -1.2066785432
 H         -2.0180913442       -2.2492700877        0.6401439991
 H         -3.3329200055       -1.3754024758        1.4844287172
 H         -0.5753750665       -0.8413871271        1.7513862266
