  34
        -79.04055353
 O          5.0748928032       -0.0062770001        0.2021496696
 C          4.0419657775        0.9053328798        0.0609353407
 C          2.6596507838        0.2185988731       -0.1349108728
 C          2.7330262170       -0.8523677280       -1.2709629416
 O          1.7616647004       -1.8257780598       -1.1878158587
 N          2.2243910992       -0.4414666143        1.1210768485
 O          1.0673918785       -0.7759995763        1.1861488083
 O          3.0607034621       -0.6282797836        1.9669674036
 N          1.6770809420        1.3023214913       -0.4879644325
 O          1.0119362506        1.7401553367        0.4157077767
 O          1.7052716504        1.6963647475       -1.6175228639
 H          5.0050118831       -0.4382662382        1.0674154949
 H          4.2580101351        1.4872849523       -0.8402583440
 H          3.9724376732        1.5852951908        0.9220242368
 H          3.7026931241       -1.3534448908       -1.1840206507
 H          2.6992693877       -0.2925938039       -2.2162825331
 H          0.8868079734       -1.4514242482       -1.3914194932
 O         -1.4862211370       -0.3787411420        2.4336748346
 C         -1.7915620333        0.5954303553        1.4939235459
 C         -2.4977335845       -0.0081833718        0.2442961011
 C         -3.7227962112       -0.8617746941        0.6598683328
 O         -4.4041098133       -1.4065301123       -0.4205038112
 N         -2.9824838613        1.1098877588       -0.6474058152
 O         -2.8289951704        0.9636313124       -1.8266915011
 O         -3.5137513579        2.0270856306       -0.0882438145
 N         -1.5242808676       -0.8208603662       -0.5231866273
 O         -1.7366866977       -1.9973331162       -0.6511863751
 O         -0.5527371705       -0.2393017410       -0.9518908953
 H         -0.6195178530       -0.7683291103        2.2426672743
 H         -0.9080631660        1.1549160865        1.1648920684
 H         -2.4998107071        1.2907557075        1.9549617317
 H         -4.4233114502       -0.1989933043        1.1762445100
 H         -3.3696943846       -1.6212573992        1.3687855236
 H         -3.9001428865       -2.1470947349       -0.7865642607
