  34
        -79.04008010
 O          2.7519844827        2.0595866302       -1.2405244150
 C          2.0163945412        0.8842994226       -1.3339990221
 C          2.3800159828       -0.1357959775       -0.2140143256
 C          3.9137815004       -0.3799934699       -0.1229826670
 O          4.6043796906        0.7311228145        0.3278380185
 N          1.9170114464        0.3787575641        1.1214153463
 O          2.1018925816        1.5443977199        1.3329252587
 O          1.4542387818       -0.4294037465        1.8803874130
 N          1.6710022715       -1.4107255231       -0.5116380702
 O          0.4708320165       -1.3863659086       -0.3911939377
 O          2.3277582074       -2.3436838847       -0.8813610676
 H          2.4627899335        2.5456242939       -0.4504054680
 H          2.2670993119        0.4346611005       -2.3002712857
 H          0.9347440936        1.0669487229       -1.2998821930
 H          4.2537785129       -0.7093959561       -1.1149463448
 H          4.1041717214       -1.1865431154        0.5929673914
 H          4.4861362341        1.4594452824       -0.3033981429
 O         -2.7454224839       -2.2131372671        1.3825190071
 C         -2.0023554268       -1.0481015228        1.4156079505
 C         -2.4067651425       -0.0563496370        0.2795002888
 C         -3.9414939291        0.1405393953        0.2209117042
 O         -4.3359184754        0.9829420885       -0.8112902294
 N         -1.7117527678        1.2354975960        0.5108276898
 O         -0.5071112386        1.2083567144        0.4727568730
 O         -2.3903371311        2.2039742222        0.7355115699
 N         -1.9560292682       -0.6048529852       -1.0516313842
 O         -2.2584122713       -1.7443372025       -1.2698742720
 O         -1.3755285344        0.1433982845       -1.7873040085
 H         -2.5310543043       -2.7096151797        0.5766287094
 H         -0.9224990280       -1.2336877863        1.3441727408
 H         -2.2150835220       -0.5700876394        2.3771623950
 H         -4.2746151968        0.4974863014        1.2033721478
 H         -4.3940067726       -0.8377105221        0.0330162215
 H         -4.1425154215        1.9011077630       -0.5745465423
