  34
        -79.03942869
 O          3.1680543815        2.2631407083       -1.3193125907
 C          2.5208661425        1.0422944394       -1.3709754834
 C          2.6172083476        0.2636290467       -0.0219782962
 C          4.0618644065        0.2722909996        0.5398193021
 O          4.1617880388       -0.3624414731        1.7700006974
 N          1.7185807814        0.9136162346        0.9941501124
 O          1.0722548083        0.1876886932        1.6978376550
 O          1.7558218222        2.1127779686        1.0354842004
 N          2.1422207049       -1.1310707939       -0.2396605786
 O          0.9889770550       -1.2560786515       -0.5707801240
 O          2.9387468054       -2.0201823472       -0.0965732886
 H          2.6880434815        2.8566395011       -0.7201968482
 H          3.0252615573        0.4541643848       -2.1440853182
 H          1.4596412616        1.1415679268       -1.6336334550
 H          4.3558855328        1.3159091985        0.6866994165
 H          4.7189813035       -0.1717863598       -0.2181934287
 H          4.1340012921       -1.3220502763        1.6491524164
 O         -2.8793316340       -2.7372348710        0.5377642414
 C         -2.1357640600       -1.9835446011       -0.3544724880
 C         -2.2998690775       -0.4543241566       -0.1293452683
 C         -2.1340792372       -0.0647167750        1.3620997792
 O         -2.4435610284        1.2657470715        1.6086929679
 N         -1.3185217870        0.2615618381       -0.9904726672
 O         -1.3558131551        0.0123089022       -2.1634556254
 O         -0.5486809130        1.0229690401       -0.4557667752
 N         -3.6675366490       -0.0106467239       -0.5740610080
 O         -4.5636476343       -0.7977926746       -0.4095629833
 O         -3.7518681110        1.0953027215       -1.0270199998
 H         -3.8237810215       -2.5961674429        0.3647411601
 H         -2.3889152132       -2.2018910810       -1.4017059110
 H         -1.0857581345       -2.2405433975       -0.1884891762
 H         -1.1103998164       -0.3215807621        1.6625576637
 H         -2.8308945595       -0.6755755599        1.9435714364
 H         -1.7159674197        1.8316968513        1.3166060467
