  34
        -79.03961083
 O          3.3121941095        2.3714645427       -1.0366341325
 C          2.6685697406        1.1679725675       -1.2583405211
 C          2.6693842376        0.2537671284        0.0077383989
 C          4.0735818593        0.1898942649        0.6610687662
 O          4.0949278582       -0.5911563728        1.8086724874
 N          1.7065589036        0.8121020418        1.0191427280
 O          0.9700860763        0.0383008341        1.5675655943
 O          1.7857301058        1.9927113852        1.2165064811
 N          2.2058552961       -1.1044245518       -0.3867539441
 O          1.0686530992       -1.1892966452       -0.7775526491
 O          2.9986395378       -2.0066060468       -0.3090901447
 H          2.7942307173        2.9034875632       -0.4119665678
 H          3.2264592311        0.6574969221       -2.0497181187
 H          1.6274211911        1.3011376271       -1.5797609615
 H          4.3508315690        1.2070592311        0.9535088668
 H          4.7822936637       -0.1602265515       -0.0994370777
 H          4.0849356413       -1.5282837799        1.5678931902
 O         -2.7415519467       -2.3548486562        0.8913282442
 C         -1.9423318014       -1.7090180571       -0.0459603211
 C         -2.2610804569       -0.1943334656       -0.1602421545
 C         -2.2421088072        0.5275901839        1.2133546661
 O         -3.2710047462        0.0973451611        2.0403160092
 N         -1.2769968620        0.4109324651       -1.0980229628
 O         -1.3881540986        0.0988452230       -2.2517668245
 O         -0.4304554047        1.1339576450       -0.6370257289
 N         -3.6277515700        0.0085260126       -0.7692096980
 O         -4.3723066424       -0.9356650777       -0.7662370677
 O         -3.8582317739        1.1110826538       -1.1776367376
 H         -3.6450600629       -2.4138027772        0.5416722966
 H         -2.0313388134       -2.1547061915       -1.0455594059
 H         -0.9079375187       -1.8141422878        0.2935245470
 H         -2.3924891376        1.5998904431        1.0500972324
 H         -1.2530992624        0.3673740123        1.6616583810
 H         -3.1186296082       -0.8305645753        2.2784016140
