  34
        -79.03944417
 O          4.7902380644        1.6571206466       -0.0993587874
 C          3.6197416262        1.7550104697       -0.8284239096
 C          2.5314319807        0.7434322696       -0.3564797717
 C          3.1335065115       -0.6974970010       -0.2459580100
 O          2.4800472937       -1.5075055384        0.6551504733
 N          1.9935867585        1.1440364606        0.9766693723
 O          0.9385373838        0.6670504567        1.2995777632
 O          2.6713671489        1.8919986249        1.6327014820
 N          1.4303880206        0.7824806898       -1.3637814799
 O          0.4679141257        1.4663894502       -1.0979092091
 O          1.6207315925        0.2064433790       -2.3952234099
 H          4.6391454515        1.9914197018        0.7987891032
 H          3.8744125981        1.5133475850       -1.8650631413
 H          3.1915932746        2.7671230521       -0.7870310537
 H          4.1645491983       -0.5885253475        0.1064729090
 H          3.1407734290       -1.1051055978       -1.2664804019
 H          1.6045454417       -1.7642277018        0.3164338270
 O         -2.1456895968        1.8132319935        0.1080520698
 C         -2.2572402571        0.6994094262        0.9337941410
 C         -2.2584057651       -0.6436801132        0.1450590204
 C         -2.4853248587       -0.4338849128       -1.3768036924
 O         -3.6611796126        0.2539496734       -1.6289836204
 N         -0.9860108067       -1.3581289828        0.3997042185
 O         -0.8885110769       -1.9422633612        1.4420581048
 O         -0.1098925401       -1.2639612209       -0.4338680503
 N         -3.3663553730       -1.5712621760        0.6307818994
 O         -4.2286055168       -1.1123167230        1.3187610776
 O         -3.2732550425       -2.6988866270        0.2309056611
 H         -1.2351441379        1.9172805517       -0.2044067642
 H         -3.2301493198        0.7793676446        1.4332882204
 H         -1.4714092273        0.6703062278        1.6972355168
 H         -2.5742368106       -1.4145338721       -1.8558170654
 H         -1.6070617783        0.0804730153       -1.7878691882
 H         -3.5657455491        1.1630655222       -1.3042551100
