  34
        -79.03942798
 O          1.4745023628        2.1548058903       -0.4609696679
 C          1.8848019695        1.3125139182        0.5708991264
 C          2.6245787505        0.0495153815        0.0493280827
 C          3.7443412153        0.4092485102       -0.9723204078
 O          3.2334563600        0.9527790791       -2.1380283886
 N          3.2477577977       -0.6269152341        1.2366931887
 O          4.1751633365       -0.0438924086        1.7306551393
 O          2.7539092198       -1.6532031711        1.6106154870
 N          1.7026601023       -0.9179263004       -0.6175308504
 O          0.5342182688       -0.6076501673       -0.6897180024
 O          2.1899890185       -1.9173218729       -1.0555734363
 H          0.5579015129        1.9578363973       -0.7077116896
 H          1.0467634233        1.0055083896        1.2064007434
 H          2.6075062839        1.8673618911        1.1807168777
 H          4.2695681386       -0.5084376609       -1.2586308628
 H          4.4456144559        1.0828218804       -0.4609098992
 H          2.7544261050        1.7714475149       -1.9216975422
 O         -5.1118125017       -0.1001049053        0.1899722360
 C         -3.9850987409       -0.3505230861        0.9548819901
 C         -2.6645851178       -0.1486863986        0.1568840193
 C         -2.7099184526       -0.9378883996       -1.1917539988
 O         -1.8676096132       -0.4397891247       -2.1633695003
 N         -2.4479426515        1.2927005725       -0.1418245262
 O         -1.3571469722        1.6039898874       -0.5424451059
 O         -3.3908808879        2.0294473281       -0.0010500608
 N         -1.5478878844       -0.6480208810        1.0242000575
 O         -0.9196904318        0.1779163027        1.6371718546
 O         -1.4262385674       -1.8378697821        1.0983623595
 H         -5.1815724396        0.8535184846        0.0277639423
 H         -4.0372703719       -1.4008150207        1.2577581000
 H         -3.9481829124        0.2833184759        1.8523851739
 H         -3.7312830858       -0.8605165561       -1.5787858164
 H         -2.4994368440       -1.9864154707       -0.9380458032
 H         -0.9407168735       -0.6040345420       -1.9257384939
