  34
        -79.03955909
 O          1.6722517004        0.7461067817       -2.3901897925
 C          1.8284343291        1.2745736330       -1.1113915675
 C          2.4221641661        0.2139282286       -0.1319188443
 C          3.9598095142        0.1109114528       -0.2636919772
 O          4.5297875135       -0.7934385140        0.6252401607
 N          2.0834344006        0.6195486888        1.2818116464
 O          1.5462509875       -0.1990065396        1.9756722232
 O          2.4064003818        1.7313461164        1.5822457126
 N          1.7846890452       -1.1049009314       -0.4056518446
 O          0.5813234918       -1.1407713828       -0.3341249536
 O          2.4971666470       -2.0317892781       -0.6798582068
 H          0.7441965851        0.5131403492       -2.5379092153
 H          0.8853418577        1.6433385685       -0.7009260484
 H          2.5363181720        2.1070102223       -1.1634663447
 H          4.3774438339        1.0920153544       -0.0188373417
 H          4.1864667080       -0.1252152696       -1.3113951841
 H          4.3475200093       -1.6974891684        0.3307209738
 O         -2.6206406966       -2.3213866607        1.1156807563
 C         -1.9897107361       -1.1100039222        1.3235705362
 C         -2.3855500764       -0.0418555135        0.2539523953
 C         -3.9223083695        0.0513710593        0.0846356687
 O         -4.2975976909        0.9544940742       -0.9021961526
 N         -1.8112604098        1.2677186248        0.6712135827
 O         -0.6120955551        1.3161881854        0.7722797364
 O         -2.5806795570        2.1660592518        0.8944499029
 N         -1.7972900482       -0.4234696617       -1.0721763789
 O         -2.0166311885       -1.5421799024       -1.4400001730
 O         -1.1870868590        0.4206031394       -1.6761399742
 H         -2.2917537742       -2.7254441502        0.2973760316
 H         -0.8949721355       -1.1955027287        1.3338145087
 H         -2.3234213454       -0.7485183198        2.3013983595
 H         -4.3561379212        0.2934629505        1.0624685024
 H         -4.2813541631       -0.9354875129       -0.2229888046
 H         -4.2036867731        1.8584925284       -0.5695263439
