  34
        -79.03963587
 O          1.6110431791        1.6972864387       -1.5544712322
 C          2.1694062265        0.4291339554       -1.6327115216
 C          2.3468537094       -0.2364604022       -0.2349830862
 C          2.4243831843        0.8231850421        0.8982334495
 O          3.3829138896        1.7871036603        0.6326085565
 N          1.2340436391       -1.1881061306       -0.0077674436
 O          0.3038603814       -0.8208855288        0.6756190404
 O          1.3002222319       -2.2432363281       -0.5769842712
 N          3.6233902580       -1.0576696006       -0.1781115228
 O          3.7035571017       -1.7800389414        0.7779352489
 O          4.4369028243       -0.9027120892       -1.0403083497
 H          0.6546075628        1.6458680562       -1.4096008470
 H          3.1734872608        0.5510352786       -2.0558308378
 H          1.5952220770       -0.2424985257       -2.2811178760
 H          2.7114957776        0.3222785220        1.8285377078
 H          1.4269085965        1.2612011250        1.0254185364
 H          3.0704268535        2.3420085717       -0.0980151789
 O         -3.6313558802       -0.6701442149        2.1119560786
 C         -2.8507370719       -1.0538297708        1.0240883194
 C         -2.4846733979        0.1355922819        0.0939806461
 C         -3.7387065688        1.0033134632       -0.2708258187
 O         -4.2860903696        1.6311700895        0.8282652576
 N         -1.5075092468        1.0407074865        0.7660389925
 O         -1.4497886570        0.9729645922        1.9639809563
 O         -0.8979754234        1.8076762961        0.0667270454
 N         -1.9570094548       -0.4102099887       -1.1943348416
 O         -0.8543230038       -0.0977133590       -1.5587956649
 O         -2.7147763243       -1.1374645317       -1.7763848323
 H         -3.0640702562       -0.2171911649        2.7553611414
 H         -3.4458593526       -1.7629473227        0.4401994817
 H         -1.9191062435       -1.5368203380        1.3428385787
 H         -4.4492628758        0.3361638116       -0.7791264461
 H         -3.4271584242        1.7945825961       -0.9623756486
 H         -4.6127180762        0.9606715882        1.4522565584
