%nprocshared=4
%mem=8000mb
%chk=dimer.chk
%nprocshared=4
%mem=8000mb
#T wB97XD/def2svpp opt=tight freq int(grid=ultrafine) scf=(verytight,qc) Volume=tight

Dimer

0 1
 O          2.5833455459        2.2371057903       -1.3894451514
 C          1.9090189224        1.0307864919       -1.4126451019
 C          2.3878340514        0.0624821413       -0.2857446760
 C          3.9314955593       -0.0515749870       -0.2543832263
 O          4.3887526769       -0.8699746267        0.7711839309
 N          1.9310230416        0.5866288035        1.0530967046
 O          1.4007152387       -0.1900959601        1.7968568765
 O          2.1770269072        1.7406904834        1.2674926582
 N          1.7589229133       -1.2651452829       -0.5075681021
 O          0.5551508400       -1.3011119345       -0.4524897493
 O          2.4848540010       -2.1959244988       -0.7429103871
 H          2.3594350540        2.7162150646       -0.5755427763
 H          2.1322556056        0.5673611173       -2.3788737380
 H          0.8211756678        1.1523793665       -1.3240146195
 H          4.3341989403        0.9497961159       -0.0749888813
 H          4.2658434473       -0.3916951530       -1.2424118338
 H          4.2388125504       -1.7975251589        0.5394258114
 O         -2.5831941089       -2.2377647786        1.3883142184
 C         -1.9085282074       -1.0316298703        1.4117625561
 C         -2.3877080448       -0.0626006941        0.2856259624
 C         -3.9313750470        0.0514844568        0.2550255032
 O         -4.3890782962        0.8708396205       -0.7695463091
 N         -1.7586837894        1.2648721131        0.5079591784
 O         -0.5549479095        1.3009146337        0.4519841863
 O         -2.4844700211        2.1954231429        0.7446692114
 N         -1.9313355477       -0.5861588948       -1.0536519417
 O         -2.1778693579       -1.7400100082       -1.2685895769
 O         -1.4008637690        0.1907171788       -1.7971006964
 H         -2.3598256695       -2.7165366072        0.5740649234
 H         -0.8207787446       -1.1534758487        1.3224347066
 H         -2.1310451670       -0.5686437443        2.3783607078
 H         -4.2653200418        0.3906432109        1.2435024478
 H         -4.3341366191       -0.9496991653        0.0748311429
 H         -4.2392015639        1.7981460325       -0.5368831767


