  42
        -56.76806658
 C          5.1028625297        0.3922764452        0.4047324119
 C          4.0689198183       -0.2309400057       -0.5263410641
 C          2.5856448072       -0.0069472851       -0.1584653345
 N          1.6991991686       -0.6145805894       -1.1441394308
 C          2.2614209584       -0.6347522985        1.2113452478
 O          0.9026662167       -0.5213227027        1.5535463348
 C          2.2409428540        1.5002339464       -0.1361845646
 O          0.8784097606        1.7408803374        0.1092258730
 H          6.1011858131        0.1710946739        0.0333821022
 H          5.0228506710       -0.0100196339        1.4105562907
 H          4.9922319991        1.4720075855        0.4488822368
 H          4.2402196514       -1.3106743410       -0.5715535538
 H          4.2224556331        0.1674520661       -1.5340770035
 H          1.7630716675       -1.6251229794       -1.1268613934
 H          1.9225061201       -0.2910101351       -2.0782823851
 H          2.8743805166       -0.1539584815        1.9845119309
 H          2.4944530863       -1.7039199758        1.1975079620
 H          0.6547300595        0.3975377528        1.3221204937
 H          2.5444155304        1.9514703198       -1.0905110444
 H          2.7828333493        1.9978919620        0.6712752408
 H          0.3482423601        1.3545578831       -0.6241737212
 C         -4.8349751520        1.0499509412        0.3239935789
 C         -4.1732030397       -0.3204567254        0.2513816984
 C         -2.6434396000       -0.2489789891        0.0499354759
 N         -2.0822553083        0.5751011084        1.1109405084
 C         -2.1171305349       -1.7093427377        0.0782654037
 O         -0.7550469874       -1.8598681436       -0.2350418467
 C         -2.3117203274        0.3954776609       -1.3091145993
 O         -0.9302095835        0.4777055630       -1.5699963007
 H         -4.2792209531        1.6801413725        1.0119846796
 H         -5.8575414135        0.9513831528        0.6799335261
 H         -4.8593464408        1.5278737764       -0.6512869958
 H         -4.6168438552       -0.9094672720       -0.5532763645
 H         -4.3542330692       -0.8462501454        1.1911040225
 H         -1.2808160086        1.1012315857        0.7882125072
 H         -1.8143815267        0.0209649354        1.9147131346
 H         -2.6580678157       -2.2979298628       -0.6688387131
 H         -2.3323874770       -2.1371841997        1.0684381131
 H         -0.2055053741       -1.4407074783        0.4617334922
 H         -2.6819281292        1.4222367420       -1.3248606180
 H         -2.8109749617       -0.1746043489       -2.1048603015
 H         -0.5470262155       -0.4079053017       -1.3949015862
