  42
        -56.77049770
 C          4.6101321409       -1.2392972076       -0.5409733349
 C          4.0805450708        0.1736571581       -0.3159866965
 C          2.5634315542        0.2524839264       -0.0199290219
 N          1.7379451796       -0.4407132438       -0.9949987977
 C          2.2627823255       -0.3329140287        1.3741839212
 O          0.8958809959       -0.3773563958        1.6807118436
 C          2.1539943004        1.7462978302       -0.0515932325
 O          0.8236114152        1.9781830472        0.3172284812
 H          5.6696274932       -1.1988859025       -0.7828667248
 H          4.0957960024       -1.7230205836       -1.3689834660
 H          4.4905461334       -1.8528890576        0.3480513861
 H          4.2797701731        0.7683031393       -1.2121902793
 H          4.6223818790        0.6351810441        0.5114527738
 H          1.8153330104       -1.4453802001       -0.8998015379
 H          1.9929529710       -0.1732930785       -1.9381486794
 H          2.8029011697        0.2607698268        2.1264266303
 H          2.6180794210       -1.3656740821        1.4324704706
 H          0.5151461437        0.4950692966        1.4438252785
 H          2.3482460349        2.1408514367       -1.0594076197
 H          2.7727734703        2.3039265497        0.6580048475
 H          0.2349119777        1.5660731485       -0.3540967390
 C         -5.0027685929       -0.4929748045       -0.5283673803
 C         -4.0254747201        0.1160614199        0.4708059480
 C         -2.5225746314       -0.0363317693        0.1434495536
 N         -1.6992091210        0.6721347885        1.1158928263
 C         -2.0992985142       -1.5213844874        0.1967428814
 O         -0.7495339429       -1.7221233788       -0.1156881284
 C         -2.2035524869        0.5487770393       -1.2471895306
 O         -0.8291195106        0.6734710772       -1.4934657511
 H         -6.0211226294       -0.3444146763       -0.1750156913
 H         -4.8379925069       -1.5608614082       -0.6397083648
 H         -4.9120644700       -0.0216261937       -1.5028224517
 H         -4.1989625541       -0.3351887093        1.4526902694
 H         -4.2387295392        1.1859067408        0.5598154623
 H         -1.9140257974        0.3686025062        2.0583997923
 H         -1.8396759338        1.6734260600        1.0553856668
 H         -2.6675023055       -2.0937352642       -0.5407531734
 H         -2.3303916620       -1.9188009433        1.1962138354
 H         -0.1980244888       -1.2754916616        0.5648208914
 H         -2.6243568101        1.5564752934       -1.3287342380
 H         -2.6645588880       -0.0848172217       -2.0166342881
 H         -0.4068415130       -0.1795848215       -1.2568989681
