  42
        -56.76939826
 C          4.2184571653       -1.4793616831        0.8879327920
 C          3.2788572051       -0.9919891032       -0.2086428900
 C          2.3934863811        0.2061654797        0.1579272742
 N          1.4674791902        0.4390639710       -0.9594721727
 C          1.5423149324       -0.0982892519        1.4133449681
 O          0.5974228694        0.8987616040        1.7056610834
 C          3.2218564248        1.4872753026        0.4145769492
 O          2.3894247390        2.6134294291        0.5192853961
 H          4.8845209801       -0.6859051736        1.2154435794
 H          4.8273313974       -2.2945365210        0.5038854665
 H          3.6650075824       -1.8484933879        1.7464349894
 H          2.6182960473       -1.8099874142       -0.5064140551
 H          3.8748422058       -0.7153704640       -1.0831552148
 H          1.9725120855        0.3826873326       -1.8386096312
 H          1.1213195581        1.3942114121       -0.8791524246
 H          2.1968702886       -0.1548287713        2.2869350044
 H          1.0573727811       -1.0739687230        1.2822151248
 H         -0.1285136030        0.8737058233        1.0335775478
 H          3.8933182101        1.6776710378       -0.4292183625
 H          3.8282000124        1.3682936934        1.3223688739
 H          1.7116532885        2.3966354118        1.1850803410
 C         -4.1491628012       -1.4030134872        1.2579848014
 C         -3.2500285850       -0.1846568668        1.0847194119
 C         -2.3943113939       -0.1650426772       -0.1885415374
 N         -1.5012668675        0.9998118004       -0.1117603606
 C         -1.5061677462       -1.4285721797       -0.2778904189
 O         -0.5859631317       -1.3934864160       -1.3382503114
 C         -3.2561099138       -0.0684972643       -1.4696575542
 O         -2.4568887517        0.1792311223       -2.5974865640
 H         -4.7406709898       -1.2877503241        2.1632816280
 H         -3.5653840699       -2.3140945676        1.3513657771
 H         -4.8322335787       -1.5091348285        0.4197575659
 H         -2.5712012920       -0.1140555981        1.9381438683
 H         -3.8737953528        0.7138954757        1.0852458253
 H         -2.0239928772        1.8101506840        0.2064006060
 H         -1.1828557066        1.2071554363       -1.0573813571
 H         -2.1388673582       -2.3010766622       -0.4601970601
 H         -0.9945993168       -1.5684203052        0.6828640191
 H          0.1251911466       -0.7353045346       -1.1373621852
 H         -3.9516991515        0.7738236356       -1.3937577189
 H         -3.8382104246       -0.9901344508       -1.6025122538
 H         -1.7579087108       -0.4997894726       -2.5969844375
