  42
        -56.76806297
 C          4.1677867421        1.4083517353       -1.2127130590
 C          3.9146950891        0.3193014488       -0.1748110968
 C          2.4391039118        0.1566860437        0.2603689978
 N          1.5640831218       -0.2570547375       -0.8311471304
 C          2.3983117808       -0.9384460491        1.3477661741
 O          1.1055960299       -1.2160078437        1.8108939155
 C          1.8999292119        1.4889448286        0.8421011103
 O          0.6887929954        1.3761384170        1.5442118845
 H          5.2147298372        1.3930484994       -1.5064261875
 H          3.9431698356        2.3930885628       -0.8123807985
 H          3.5707748238        1.2527064434       -2.1094225215
 H          4.5179005157        0.5269502726        0.7107736560
 H          4.2494943856       -0.6397585561       -0.5811935832
 H          1.7613890296       -1.2121967060       -1.1093349136
 H          1.6994273403        0.3402436594       -1.6392526468
 H          3.0402215133       -0.6265845030        2.1837195891
 H          2.7942948387       -1.8762225749        0.9447030234
 H          0.7280106947       -0.3415232871        2.0437246770
 H          1.7943190740        2.2144703633        0.0259943574
 H          2.6305569029        1.8770132162        1.5583926932
 H         -0.0483853963        1.1982128838        0.8969036887
 C         -3.8688928095        1.9765498691       -0.2752468765
 C         -3.4832029869        0.6714610012        0.4143496565
 C         -2.3334037494       -0.1079854765       -0.2444572030
 N         -1.1401613004        0.7291166319       -0.3510899333
 C         -1.9966965515       -1.3139800406        0.6694195468
 O         -0.9441496263       -2.1119704878        0.1804958797
 C         -2.7367415385       -0.6464874459       -1.6396462923
 O         -1.6515105069       -1.2427461458       -2.3000160641
 H         -4.1702001699        1.8096686735       -1.3061095200
 H         -3.0442365217        2.6844353207       -0.2571157666
 H         -4.7070090584        2.4274456031        0.2507941279
 H         -4.3558454400        0.0167828541        0.4557464295
 H         -3.1854279178        0.8990261090        1.4399553010
 H         -1.3300150076        1.5009620932       -0.9821225282
 H         -0.3953664402        0.1684006051       -0.7767683373
 H         -2.8830902288       -1.9551237454        0.7323695925
 H         -1.7684498409       -0.9458728765        1.6740835435
 H         -0.1149345716       -1.8272739491        0.6122921645
 H         -3.0664241287        0.1724764236       -2.2856618292
 H         -3.5698169358       -1.3569756437       -1.5301215353
 H         -1.2542564852       -1.8648834715       -1.6644173202
