  42
        -56.76804605
 C          4.7500985298        0.4757902256       -1.1910570300
 C          4.1516421434        0.0851775053        0.1545837855
 C          2.6062573536        0.0742434411        0.1645211684
 N          2.1452926387       -0.8435711312       -0.8727178547
 C          2.1535692489       -0.4366345714        1.5493456349
 O          0.7596141668       -0.5750443474        1.6784303976
 C          2.0777960538        1.5121175668       -0.0519961211
 O          0.6933428190        1.6585168724        0.1543182019
 H          4.3237818347       -0.1461076528       -1.9725660204
 H          5.8267862419        0.3244725636       -1.1742427675
 H          4.5592338398        1.5200922338       -1.4232927502
 H          4.5131442280        0.7585130663        0.9341043072
 H          4.4830272814       -0.9252468705        0.3986810278
 H          1.7284207902       -0.3519894900       -1.6530343926
 H          1.4701417738       -1.5042544867       -0.5096799259
 H          2.5364684127        0.2435012247        2.3225621352
 H          2.5766947704       -1.4301042054        1.7218165935
 H          0.3554106425        0.2767657434        1.4074119323
 H          2.3442484289        1.8412938781       -1.0644443894
 H          2.5576927114        2.1833062698        0.6662604580
 H          0.2071972730        1.1579163782       -0.5357943575
 C         -4.6277045956        1.3441181811        0.1484588094
 C         -4.1262931269       -0.0965441007        0.1532715778
 C         -2.5955866611       -0.2428844686       -0.0068880889
 N         -1.8273081258        0.4638771834        1.0056718620
 C         -2.2443724872       -1.7455230995        0.1349440076
 O         -0.8743175087       -2.0158719274       -0.0115881036
 C         -2.1516221002        0.2604239546       -1.3944655580
 O         -0.7744079557        0.0998906257       -1.6233422728
 H         -4.4555139062        1.8189198182       -0.8136702978
 H         -4.1362290373        1.9326727656        0.9205783655
 H         -5.6969192834        1.3596395881        0.3457411429
 H         -4.6178234797       -0.6533647545       -0.6464777037
 H         -4.4094139726       -0.5639965524        1.1008091770
 H         -1.8586641077        1.4659728954        0.8661893319
 H         -2.1700746611        0.2482443534        1.9344619770
 H         -2.7556544766       -2.3174439222       -0.6444475575
 H         -2.5993658074       -2.1015842726        1.1114174915
 H         -0.3841679188       -1.5643389283        0.7129686561
 H         -2.3540565458        1.3301825276       -1.4925158621
 H         -2.7244249976       -0.2748343967       -2.1650389195
 H         -0.5572447386       -0.7975388214       -1.2924408716
