  42
        -56.77016225
 C          4.0970015908        1.4516355179       -1.1583081844
 C          3.2108471964        0.2210607399       -1.0055195467
 C          2.2860365928        0.2147676498        0.2186067824
 N          1.4276219899       -0.9752461213        0.1273597711
 C          3.0775849512        0.1752274714        1.5474195473
 O          2.2236275321       -0.0674622795        2.6356104558
 C          1.3643975020        1.4573229432        0.2227491136
 O          0.3963114816        1.4335372668        1.2395751686
 H          4.7386147063        1.3270249385       -2.0275115510
 H          4.7318183044        1.5887029233       -0.2872786907
 H          3.5038966956        2.3497127617       -1.3040861539
 H          3.8496289332       -0.6651255180       -0.9492167428
 H          2.5825466729        0.1172867175       -1.8935554203
 H          1.0660152810       -1.1655865392        1.0611061949
 H          1.9878920766       -1.7796706562       -0.1380436419
 H          3.6255049229        1.1163666886        1.6878087315
 H          3.7990555869       -0.6483326689        1.5322202176
 H          1.5118331530        0.5959778383        2.5821871500
 H          0.8951863222        1.5523904653       -0.7646775441
 H          1.9669545259        2.3510438511        0.4041994565
 H         -0.2953706562        0.7591517595        1.0211376191
 C         -2.9932198202        2.1256273027        0.0455029287
 C         -3.5389615472        0.7203429864       -0.1921527816
 C         -2.4639222210       -0.3612505692       -0.3564937610
 N         -1.6174460709       -0.4248452037        0.8404012282
 C         -3.1490548374       -1.7339249285       -0.5775343381
 O         -2.2206209087       -2.7841663818       -0.5383863358
 C         -1.5588938190       -0.0586310682       -1.5735810045
 O         -0.5691713395       -1.0308283055       -1.7982918511
 H         -2.5389331750        2.5278345797       -0.8554761163
 H         -2.2503398533        2.1244055069        0.8382467142
 H         -3.8062473430        2.7875631732        0.3341514023
 H         -4.1725647957        0.7191130571       -1.0812981738
 H         -4.1686806900        0.4380826263        0.6565730393
 H         -1.2071846465       -1.3573715541        0.8713346366
 H         -2.1939620225       -0.3291579366        1.6708831064
 H         -3.6954997788       -1.7239484615       -1.5311508135
 H         -3.8660742239       -1.9276498570        0.2271963165
 H         -1.5314452451       -2.5638102498       -1.1921645507
 H         -1.1017554818        0.9276637769       -1.4428804341
 H         -2.1779067633       -0.0339304803       -2.4755600488
 H          0.1270371012       -0.9525700523       -1.0987994579
