  42
        -56.76847236
 C          4.8529964142        0.5025066102       -1.0416264006
 C          4.1944560342        0.1028255860        0.2737880024
 C          2.6589955102        0.0479201841        0.1964840550
 N          2.2833084622       -0.8968968381       -0.8450138010
 C          2.1269460614       -0.3735994906        1.5914079141
 O          0.7373995436       -0.5878576598        1.6229016814
 C          2.1005019150        1.4411150871       -0.1789087424
 O          0.7193711974        1.6003478771        0.0395484850
 H          5.9254310554        0.3302980118       -0.9879451884
 H          4.6873131321        1.5538523349       -1.2580015300
 H          4.4396708664       -0.0900504132       -1.8524078721
 H          4.4885379729        0.7962456867        1.0641158615
 H          4.5507820401       -0.8908194808        0.5583084006
 H          1.2780693253       -1.0253790347       -0.8568120999
 H          2.6975132462       -1.8037881362       -0.6566167874
 H          2.4086736422        0.3894386331        2.3300160928
 H          2.5873554535       -1.3228357048        1.8851596720
 H          0.3114058054        0.2397384016        1.3105879966
 H          2.3457885275        1.6379570404       -1.2267570421
 H          2.5878707507        2.1940448397        0.4481048672
 H          0.2201238577        1.1427241216       -0.6667632508
 C         -4.6708579695        1.3187465146        0.3084587279
 C         -4.1452527594       -0.1123732825        0.2589534156
 C         -2.6249457815       -0.2271858087        0.0006652467
 N         -1.8109660182        0.4682140440        0.9847287353
 C         -2.2448900207       -1.7282232265        0.0794437575
 O         -0.8817893694       -1.9786494062       -0.1470484301
 C         -2.2782632354        0.3224418846       -1.3971893709
 O         -0.9229986113        0.1729138534       -1.7330125510
 H         -4.1375714452        1.9061857718        1.0531651209
 H         -5.7242069126        1.3124277579        0.5784566365
 H         -4.5727788447        1.8084120212       -0.6565582710
 H         -4.6769034362       -0.6663024938       -0.5167814896
 H         -4.3595392271       -0.5989365958        1.2149472879
 H         -2.1107863301        0.2424876250        1.9258998453
 H         -1.8461673268        1.4714600523        0.8560898240
 H         -2.7906568835       -2.2836385576       -0.6886571231
 H         -2.5438726123       -2.1169127580        1.0620239394
 H         -0.3629366594       -1.5661900830        0.5789274862
 H         -2.4827637772        1.3952168482       -1.4420305008
 H         -2.9094496860       -0.1842473625       -2.1415517450
 H         -0.6893353695       -0.7445345725       -1.4922871372
