  42
        -56.76851415
 C          4.0751897168       -1.7949452813        0.1817020881
 C          3.5584813355       -0.5106252193       -0.4594618244
 C          2.3540138330        0.1399297947        0.2403760836
 N          1.2381427379       -0.8001741589        0.3209832895
 C          2.7251883468        0.6547134689        1.6532241744
 O          1.6013484346        1.1352217616        2.3428980125
 C          1.9063455519        1.3478475034       -0.6222954727
 O          0.7978647540        2.0372378039       -0.0927802125
 H          4.9392201164       -2.1517170704       -0.3738680613
 H          3.3183762825       -2.5748001011        0.1568380180
 H          4.3822123628       -1.6318369354        1.2114534073
 H          3.2641730226       -0.7328519586       -1.4872416642
 H          4.3669297570        0.2222519890       -0.4928473606
 H          0.4588424587       -0.3314393647        0.7935230605
 H          1.5067620442       -1.5896238987        0.8991684061
 H          3.4972488524        1.4340142218        1.5669647974
 H          3.1252318915       -0.1594511009        2.2645503375
 H          1.1489404971        1.7457159767        1.7334628293
 H          1.6963693267        0.9994115080       -1.6377488139
 H          2.7364219393        2.0618769438       -0.6695618127
 H         -0.0093930382        1.7173929648       -0.5418300814
 C         -4.5273222676        0.2002969838        1.0588786157
 C         -3.8117275795       -0.8554633150        0.2214514485
 C         -2.3916879076       -0.4542834259       -0.2403715045
 N         -1.5252957121       -0.0614557111        0.8662690477
 C         -1.7599399881       -1.6951548184       -0.9296258106
 O         -0.5544174628       -1.4531695866       -1.6044820810
 C         -2.4687950770        0.7110042870       -1.2451194218
 O         -1.2142787425        1.0957809459       -1.7405225943
 H         -4.7093654644        1.1036017241        0.4827806368
 H         -3.9490524156        0.4615901920        1.9429832959
 H         -5.4875967790       -0.1870006648        1.3908160887
 H         -4.4155149743       -1.0854970103       -0.6579351002
 H         -3.7259299450       -1.7736702743        0.8101222178
 H         -1.6481360207       -0.6929562353        1.6505718847
 H         -1.7374768653        0.8791173313        1.1785894377
 H         -2.4594126941       -2.0680354109       -1.6842251498
 H         -1.6251028664       -2.4797907724       -0.1723046681
 H          0.1644491661       -1.2621634591       -0.9393108395
 H         -2.8924395272        1.5982004864       -0.7660881150
 H         -3.1284976574        0.4162154601       -2.0736313219
 H         -0.7807842589        0.2615517103       -2.0209900320
