  42
        -56.77034812
 C          4.7839401800       -0.9724876304       -0.3032573668
 C          4.0512013924        0.3644821170       -0.2534000102
 C          2.5290614664        0.2647029111        0.0092152307
 N          1.8040474548       -0.4692655226       -1.0141726747
 C          2.2558403285       -0.4247918633        1.3654448205
 O          0.9150788927       -0.3605392336        1.7674930811
 C          1.9685365557        1.7046988959        0.0396562257
 O          0.5713510622        1.7671096761        0.1039075742
 H          5.8238205576       -0.8091113691       -0.5772042382
 H          4.3439114441       -1.6354724750       -1.0456689066
 H          4.7630612258       -1.4693847336        0.6627200900
 H          4.1913846815        0.8768623824       -1.2098631618
 H          4.4985759442        0.9897456218        0.5215559773
 H          2.1353195792       -1.4236656842       -1.0808348712
 H          1.8936943150       -0.0234563763       -1.9191840969
 H          2.8364372823        0.0767392077        2.1457824555
 H          2.5819462891       -1.4713885846        1.3075815847
 H          0.3762480402       -0.9002321957        1.1463107222
 H          2.2573882217        2.2295424342       -0.8769908337
 H          2.4136178397        2.2361340651        0.8932934578
 H          0.2862397582        1.1652435970        0.8250196252
 C         -4.7850701659        0.9718283287        0.2987250504
 C         -4.0511854974       -0.3646753588        0.2533346619
 C         -2.5289639433       -0.2645686914       -0.0086783802
 N         -1.8045163428        0.4697063539        1.0149379437
 C         -1.9683032322       -1.7045039413       -0.0385913039
 O         -0.5711290811       -1.7668781505       -0.1031156676
 C         -2.2553470688        0.4248891836       -1.3648503375
 O         -0.9145113512        0.3603157100       -1.7667087145
 H         -5.8246654657        0.8085189073        0.5737890392
 H         -4.7651147915        1.4651659803       -0.6690963661
 H         -4.3452362182        1.6379618337        1.0384350805
 H         -4.4976538902       -0.9925908584       -0.5199953455
 H         -4.1914641312       -0.8743521463        1.2112333662
 H         -1.8937563967        0.0235152865        1.9197970325
 H         -2.1367119439        1.4237664767        1.0819794470
 H         -2.4134964050       -2.2363591793       -0.8919305848
 H         -2.2570224121       -2.2289441580        0.8783444046
 H         -0.2863219471       -1.1648026213       -0.8242068587
 H         -2.5810956822        1.4715649432       -1.3068939457
 H         -2.8359459648       -0.0764193147       -2.1453019215
 H         -0.3757210085        0.9002429045       -1.1457105301
