  42
        -56.76970835
 C          4.3287387494       -0.1932725513       -1.1383065132
 C          3.1263528740        0.7371940740       -1.0106790518
 C          2.2375630955        0.5082784394        0.2203426151
 N          1.4836379112       -0.7413176454        0.0720058842
 C          3.0412379500        0.4846645229        1.5410474215
 O          2.2126344317        0.1891337170        2.6350142516
 C          1.2146534588        1.6721164582        0.2852803887
 O          0.2566832955        1.5399549207        1.3013094782
 H          4.8221160501       -0.0136809990       -2.0904141316
 H          4.0317091860       -1.2394085584       -1.1118996521
 H          5.0509847502       -0.0160351435       -0.3460382895
 H          2.4926263867        0.6187782280       -1.8926729642
 H          3.4818250653        1.7690436364       -0.9907414612
 H          1.1517268856       -1.0103555837        0.9968804570
 H          2.1041076004       -1.4801955165       -0.2425645568
 H          3.5516063668        1.4490701470        1.6784167632
 H          3.7944327446       -0.3077003752        1.5179191539
 H          1.4523194772        0.7971861674        2.5864675088
 H          0.7329114861        1.7689096471       -0.6961152485
 H          1.7521136118        2.6032171051        0.4899731695
 H         -0.3792469132        0.8180505487        1.0626404032
 C         -3.1945972409        1.9894450191        0.1547908263
 C         -3.6156148680        0.5527797623       -0.1414522035
 C         -2.4503941405       -0.4206328501       -0.3587354029
 N         -1.5923548556       -0.4624793681        0.8309022371
 C         -3.0132934425       -1.8374542112       -0.6388809112
 O         -1.9954345936       -2.8020265089       -0.6494928863
 C         -1.5853102339        0.0150684893       -1.5645046768
 O         -0.5185746771       -0.8570626467       -1.8405886444
 H         -2.7867165862        2.4693057582       -0.7302379476
 H         -2.4467167658        2.0201411771        0.9422593844
 H         -4.0604020764        2.5629998563        0.4772498215
 H         -4.2546157822        0.5336019831       -1.0265303437
 H         -4.2101758916        0.1791161094        0.6972788797
 H         -1.1019150139       -1.3558870373        0.8185634818
 H         -2.1684155706       -0.4543709716        1.6671496646
 H         -3.5646662268       -1.8334630884       -1.5896069722
 H         -3.7050079268       -2.1294106978        0.1582565634
 H         -1.3347727027       -2.4939273938       -1.2972554789
 H         -1.2130878762        1.0298115069       -1.3891891706
 H         -2.2124008444        0.0290941651       -2.4611295087
 H          0.1753172632       -0.7545712694       -1.1411889987
