  42
        -56.77017507
 C          5.0882778442        0.2192946486        0.3608741240
 C          4.0134187382       -0.2798623908       -0.5982588449
 C          2.5468619699       -0.0194317675       -0.1851122060
 N          1.6205015191       -0.6369313796       -1.1269800466
 C          2.2576716204       -0.6128364660        1.2082790385
 O          0.8932860300       -0.6294612558        1.5299944482
 C          2.2406399650        1.4954118296       -0.1833580230
 O          0.9334250628        1.7959683667        0.2189047446
 H          6.0710684217        0.0041116967       -0.0536095301
 H          5.0137352701       -0.2750479974        1.3252466976
 H          5.0146257340        1.2925240404        0.5114403760
 H          4.1348850828       -1.3600304892       -0.7265474827
 H          4.1705651187        0.1858291070       -1.5761467592
 H          1.6731191485       -1.6476078208       -1.0841676641
 H          1.8207524592       -0.3391777017       -2.0746089030
 H          2.8118848537       -0.0393960208        1.9633317940
 H          2.5967161401       -1.6534947903        1.2439934295
 H          0.5338313734        0.2598897501        1.3266431965
 H          2.4404083397        1.8969742785       -1.1876704180
 H          2.8978427165        2.0030137036        0.5271082474
 H          0.3054900494        1.4229034985       -0.4384605306
 C         -5.0884843849       -0.2193647263       -0.3588467585
 C         -4.0128923891        0.2793793714        0.5996633815
 C         -2.5465888959        0.0193875193        0.1853258931
 N         -1.6197389567        0.6374709671        1.1263227072
 C         -2.2400047782       -1.4953612549        0.1836908673
 O         -0.9332830116       -1.7957498652       -0.2205610067
 C         -2.2586296763        0.6124732179       -1.2084702955
 O         -0.8944199296        0.6295686288       -1.5310750906
 H         -6.0709617982       -0.0056072886        0.0571015894
 H         -5.0141034697       -1.2923136283       -0.5110365008
 H         -5.0154727143        0.2763991399       -1.3225970674
 H         -4.1691610834       -0.1868692686        1.5774219792
 H         -4.1344098675        1.3594490317        0.7286457963
 H         -1.8190979921        0.3397651157        2.0741491951
 H         -1.6728073674        1.6481170322        1.0833780344
 H         -2.8982171701       -2.0034276812       -0.5255062006
 H         -2.4379272437       -1.8965827258        1.1885116268
 H         -0.3047015825       -1.4228890599        0.4363127101
 H         -2.5981655231        1.6529755850       -1.2443268269
 H         -2.8131093455        0.0385071270       -1.9629438770
 H         -0.5348599270       -0.2598416032       -1.3282135537
