  42
        -56.76996326
 C          3.5561685057       -1.3667031889       -1.2128884807
 C          3.6454408443       -0.6470862362        0.1291597137
 C          2.3615099080        0.0948323273        0.5266929630
 N          1.2435633657       -0.8458843882        0.5817245230
 C          2.5645156386        0.7532248476        1.9165546392
 O          1.3644346344        1.2622597887        2.4334752661
 C          2.0284840118        1.2004061579       -0.5029228317
 O          0.9161463841        1.9863860621       -0.1353074989
 H          4.4214806923       -2.0126445288       -1.3414480061
 H          3.5382204363       -0.6594461521       -2.0367620586
 H          2.6570985336       -1.9746407876       -1.2579741810
 H          4.4728358666        0.0646694399        0.1129402516
 H          3.8616236257       -1.3824397465        0.9091595529
 H          0.4363060851       -0.3582579528        0.9833830038
 H          1.4809562645       -1.6108163497        1.2062133807
 H          3.3264547106        1.5427436202        1.8402685528
 H          2.9171514400        0.0057641822        2.6355103919
 H          0.9920550686        1.8244283025        1.7293911361
 H          1.8651318331        0.7448361735       -1.4817185946
 H          2.8894908970        1.8749490091       -0.5704962997
 H          0.1278527310        1.6438288439       -0.6005832119
 C         -4.5298515523        0.3334664821        0.8530950196
 C         -3.7889236982       -0.8002551484        0.1505414325
 C         -2.3348837392       -0.4635280776       -0.2527016692
 N         -1.5280307772       -0.0013052235        0.8720817668
 C         -1.6911693002       -1.7664729043       -0.8016533161
 O         -0.4377815393       -1.6005082774       -1.4091311934
 C         -2.3240533204        0.6190010731       -1.3487498060
 O         -1.0340049505        0.9386808527       -1.7970713767
 H         -4.6604347579        1.1872602761        0.1936116223
 H         -3.9977498969        0.6600374751        1.7444224477
 H         -5.5150662016       -0.0095526581        1.1595606967
 H         -4.3433645147       -1.0920726469       -0.7428743914
 H         -3.7592419649       -1.6678487345        0.8164293698
 H         -1.7251962968       -0.5557412474        1.6983335435
 H         -1.7238123404        0.9695457050        1.0870426449
 H         -2.3479648265       -2.1832278759       -1.5713300637
 H         -1.6253569311       -2.4924836396        0.0205507526
 H          0.2349086701       -1.3599796780       -0.7129969904
 H         -2.7533435277        1.5498242254       -0.9674069572
 H         -2.9413754047        0.2718176980       -2.1896068365
 H         -0.6037218804        0.0771296317       -1.9835690646
