  42
        -56.77077829
 C          4.7096927597       -1.0220624022       -0.3671477294
 C          4.0595578079        0.3477356420       -0.1985063116
 C          2.5269717009        0.3108389642        0.0148711893
 N          1.8107326637       -0.4614277125       -0.9861449591
 C          2.1972262755       -0.2733898208        1.4030528276
 O          0.8236172429       -0.4270551470        1.6352901716
 C          2.0032313331        1.7659574902       -0.0696440963
 O          0.6381940698        1.8925514008        0.2117490561
 H          5.7748710402       -0.9016100687       -0.5503751199
 H          4.2827325129       -1.5564636100       -1.2134724376
 H          4.5878867249       -1.6306050956        0.5250658994
 H          4.2604931069        0.9422891338       -1.0943712248
 H          4.5173942822        0.8635266045        0.6474492245
 H          1.9734209593       -1.4542176376       -0.8758061593
 H          2.0807389515       -0.1801403901       -1.9209703633
 H          2.6433971650        0.3757481513        2.1708332513
 H          2.6322662290       -1.2718489881        1.5030470189
 H          0.3833055217        0.4074840380        1.3664145746
 H          2.2280855529        2.1613312816       -1.0709800377
 H          2.5294517977        2.3819588598        0.6658889723
 H          0.1299887173        1.4132945134       -0.4813067402
 C         -4.7106847008        1.0195515489        0.3693967772
 C         -4.0595221379       -0.3494217513        0.1981062431
 C         -2.5269494192       -0.3109716977       -0.0151414930
 N         -1.8113353995        0.4612183545        0.9863969723
 C         -2.0021558500       -1.7657822007        0.0683649982
 O         -0.6369570880       -1.8912667968       -0.2126124465
 C         -2.1975712537        0.2745714623       -1.4028316153
 O         -0.8240228936        0.4286360455       -1.6352246726
 H         -4.5891000640        1.6300293917       -0.5215260689
 H         -4.2843246177        1.5524912169        1.2169434116
 H         -5.7758082405        0.8979141170        0.5521378503
 H         -4.5168879576       -0.8638718006       -0.6489215660
 H         -4.2601006349       -0.9459225289        1.0927585113
 H         -2.0816489368        0.1796491196        1.9210499836
 H         -1.9742667733        1.4539932874        0.8762062732
 H         -2.5277419450       -2.3815663947       -0.6678134683
 H         -2.2270884233       -2.1620522888        1.0693340522
 H         -0.1293298100       -1.4118656528        0.4807991185
 H         -2.6328416124        1.2730503313       -1.5017511015
 H         -2.6438030958       -0.3738808330       -2.1711528315
 H         -0.3834859315       -0.4058662863       -1.3665236824
