%nprocshared=4
%mem=8000mb
%chk=15.chk
%mem=8000mb
#T wB97XD/def2svpp opt=tight freq int(grid=ultrafine) scf=(verytight,qc)

comment

1 2
C       -1.073549    1.433793    0.000002
C       -0.553789    0.002788    0.000000
C       -0.969857   -0.751000    1.264261
C       -0.969855   -0.750996   -1.264264
N        0.982512    0.028591    0.000001
O        1.542785    1.099652    0.000001
O        1.541156   -1.045647    0.000000
H       -2.176421    1.407209    0.000002
H       -0.736935    1.985100   -0.891503
H       -0.736935    1.985098    0.891508
H       -2.070194   -0.810681    1.305004
H       -0.619446   -0.225726    2.169120
H       -0.558621   -1.772145    1.265320
H       -2.070192   -0.810677   -1.305009
H       -0.558619   -1.772141   -1.265326
H       -0.619443   -0.225719   -2.169120


