%chk=25.chk
%nprocshared=4
%mem=8000mb
#T wB97XD/def2svpp opt=tight freq int(grid=ultrafine) scf=(verytight,qc) Volume=tight

Monomer

0 1
C       -0.196727   -0.196575    1.551200 
C       -0.187392   -0.202191    0.018269 
C        0.842705   -1.230529   -0.492298 
O        2.138050   -1.011631   -0.012655 
C       -1.572500   -0.592687   -0.524514 
O       -2.606977    0.271485   -0.126108 
C        0.162757    1.195799   -0.522883 
O        1.438539    1.660697   -0.113927 
H       -0.571088   -1.159087    1.945252 
H       -0.831437    0.613999    1.954990 
H        0.823421   -0.070895    1.949015 
H        0.817306   -1.231518   -1.605011 
H        0.547757   -2.243670   -0.163710 
H        2.331635   -0.065686   -0.138047 
H       -1.791552   -1.641502   -0.233096 
H       -1.562423   -0.560419   -1.627670 
H       -2.779741    0.140906    0.815290 
H       -0.630151    1.913162   -0.241473 
H        0.200421    1.163522   -1.624986 
H        1.395905    1.933879    0.812327 


