  26
        -26.31557184
 C         -1.6822647302       -1.8252169619        0.7352697244
 C         -1.3866439426       -0.3284885333        0.7101373614
 C         -0.1405395759        0.1594269695       -0.0679977405
 C         -0.0559218904       -0.5126859741       -1.4381593936
 C         -0.3441315836        1.6853749068       -0.2503726682
 C          0.6426435686        2.4096782749       -1.1615623788
 C          1.1597225441       -0.0445300529        0.7385815141
 C          1.7520120192       -1.4495100069        0.7905873294
 H         -1.8668492726       -2.2079400069       -0.2646213503
 H         -2.5797913653       -1.9966714033        1.3274828138
 H         -0.8759881689       -2.3961716438        1.1828877956
 H         -1.3030799666        0.0275935681        1.7400781980
 H         -2.2641631244        0.1585021711        0.2756897813
 H         -0.0260744569       -1.5933938232       -1.3433465692
 H          0.8419718818       -0.1964906637       -1.9625148169
 H         -0.9225116618       -0.2450407737       -2.0396068766
 H         -0.3147687216        2.1506629196        0.7383460236
 H         -1.3446192283        1.8526987716       -0.6569022469
 H          1.6706484227        2.2883919608       -0.8303966434
 H          0.4168769050        3.4742965146       -1.1579794214
 H          0.5645660337        2.0551916319       -2.1856255856
 H          0.9846431537        0.2987799997        1.7615242178
 H          1.9257873460        0.6039230265        0.3098136527
 H          1.0995453159       -2.1493827227        1.3022992490
 H          2.6938577026       -1.4171175024        1.3362931158
 H          1.9568491444       -1.8285959887       -0.2065300783
