  26
        -26.31974162
 C         -2.0890177098       -1.3501044423        0.7707778486
 C         -1.4000405530        0.0052743198        0.6422740148
 C         -0.0006866198       -0.0036355111       -0.0085148094
 C         -0.0604140425       -0.6688259537       -1.3863450124
 C          0.4918618329        1.4531903809       -0.1385074923
 C         -0.2925710078        2.3434290155       -1.0978762087
 C          0.9685880947       -0.7716284206        0.9147544145
 C          2.3856726362       -0.9684908905        0.3842913961
 H         -1.5305384122       -2.0282588935        1.4102486266
 H         -2.2191554365       -1.8172011470       -0.2013957410
 H         -3.0741007493       -1.2133811129        1.2128325805
 H         -1.3146284122        0.4502188365        1.6371145537
 H         -2.0519941098        0.6494917575        0.0505365437
 H          0.8256801072       -0.4263104368       -1.9678280042
 H         -0.9336903620       -0.3297877451       -1.9381665208
 H         -0.1180826618       -1.7500679999       -1.2878328021
 H          1.5284655395        1.4388019910       -0.4782688559
 H          0.4785608244        1.9110272850        0.8540688091
 H         -0.2770358466        1.9410727820       -2.1069753808
 H          0.1600960277        3.3328967491       -1.1233485489
 H         -1.3270291265        2.4604255972       -0.7863145865
 H          0.5510957916       -1.7607715899        1.1082120423
 H          1.0225430268       -0.2455402031        1.8714776777
 H          2.9651987167       -1.5395328621        1.1072316166
 H          2.8937758601       -0.0208815125        0.2269976161
 H          2.3804097253       -1.5194435512       -0.5521169697
