  26
        -26.31741829
 C         -2.3670951508       -0.4006220026        0.6282156751
 C         -0.8662218549       -0.4971416814        0.8856631621
 C          0.0355176691       -0.3408143395       -0.3516344944
 C         -0.3321032815       -1.4081037231       -1.3950220845
 C         -0.1459453859        1.0261094687       -1.0417279653
 C          0.2091878445        2.2663660570       -0.2298633865
 C          1.5155048254       -0.5899302140        0.0318695024
 C          1.9847803760       -0.1162946295        1.4059058817
 H         -2.6370638524        0.5694607835        0.2195084252
 H         -2.9030732446       -0.5281441615        1.5670083289
 H         -2.7043350294       -1.1735723849       -0.0567238126
 H         -0.6564925269       -1.4731991419        1.3307389778
 H         -0.5993335369        0.2617109304        1.6211485732
 H          0.4087184722       -1.4235280314       -2.1921042510
 H         -1.3004223311       -1.2034238789       -1.8440014295
 H         -0.3645344124       -2.3956928364       -0.9397271553
 H         -1.1865527694        1.1103346250       -1.3613424623
 H          0.4637943475        1.0246582103       -1.9494225106
 H          1.2750250388        2.3112213802       -0.0251242743
 H         -0.3332326981        2.2938419454        0.7114725044
 H         -0.0576845249        3.1571914078       -0.7961889922
 H          2.1441177609       -0.1264089219       -0.7322508511
 H          1.6987369839       -1.6666069837       -0.0147671410
 H          3.0592549313       -0.2728481270        1.4868201344
 H          1.5066637971       -0.6826542137        2.2006616902
 H          1.7857087854        0.9378077424        1.5678819452
