  26
        -26.32048357
 C         -1.8431217350       -0.6734001529        1.4798119986
 C         -1.1751190831       -1.0056701632        0.1495218775
 C         -0.0335758810       -0.0651538078       -0.2900322973
 C          0.5044425676       -0.5962697797       -1.6243617417
 C         -0.6105441236        1.3524297952       -0.4887148339
 C          0.3187655898        2.3630110955       -1.1543809075
 C          1.0984685310       -0.0104061427        0.7525505020
 C          1.6958606955       -1.3570953832        1.1483155256
 H         -2.3140952137        0.3054899794        1.4535201732
 H         -1.1275794653       -0.6919824743        2.2972911245
 H         -2.6153022424       -1.4104873087        1.6923665357
 H         -1.9382174372       -0.9955902227       -0.6333666731
 H         -0.7870973335       -2.0246421205        0.2010164771
 H          1.4199072826       -0.0845196422       -1.9087819591
 H         -0.2324708877       -0.4535901665       -2.4120996136
 H          0.7183265119       -1.6601263383       -1.5568915405
 H         -0.9008071053        1.7507716145        0.4852712978
 H         -1.5169126204        1.2717222947       -1.0944975995
 H          0.5743196869        2.0600316192       -2.1658446926
 H          1.2364637168        2.4923547209       -0.5868583185
 H         -0.1787808102        3.3294509718       -1.2097393383
 H          0.7278676371        0.4872626949        1.6511265740
 H          1.9024726949        0.6086961577        0.3498119263
 H          2.5170508137       -1.1995441177        1.8452576470
 H          2.0879833568       -1.8823318360        0.2815546289
 H          0.9610259170       -1.9916923223        1.6360729040
