  26
        -26.31719044
 C         -2.6661164040       -0.6704484444        0.2551753736
 C         -1.2721799910       -0.8106148126        0.8593693439
 C         -0.1002777774       -0.1981701013        0.0548365424
 C          0.0756755944       -0.9740376994       -1.2516415496
 C         -0.4325091046        1.2782698696       -0.2380121132
 C          0.6931488110        2.1320274358       -0.8115277843
 C          1.1498474678       -0.3307793580        0.9595733169
 C          2.5057771803       -0.4512787694        0.2678959387
 H         -3.3826739951       -1.2017874876        0.8786351859
 H         -2.7117021798       -1.0976433589       -0.7429131049
 H         -2.9756474055        0.3696942580        0.2040174161
 H         -1.0666330934       -1.8754474052        0.9963763493
 H         -1.2817199095       -0.3502008890        1.8510692719
 H          0.2784196597       -2.0228559952       -1.0458519262
 H          0.8954993651       -0.5739760671       -1.8399622113
 H         -0.8268417061       -0.9123397678       -1.8543844894
 H         -0.7735879121        1.7430565931        0.6911207548
 H         -1.2641197737        1.3045304695       -0.9445863956
 H          1.0857897242        1.7036712330       -1.7300607199
 H          1.5052144175        2.2483576362       -0.0994141645
 H          0.3094999270        3.1242385958       -1.0436095824
 H          1.0290966180       -1.2229894834        1.5797610392
 H          1.1712495470        0.5252936497        1.6379505875
 H          3.2901211470       -0.4617106519        1.0230710804
 H          2.6992873743        0.3764806186       -0.4060699806
 H          2.5744815618       -1.3780706199       -0.2952237002
