  26
        -26.31685791
 C         -1.6834172218       -0.1876618845        1.5127363542
 C         -1.2085054657       -0.7778592543        0.1883871921
 C          0.0611746366       -0.1827303321       -0.4587888653
 C          0.4991631439       -1.1690349431       -1.5545233414
 C         -0.2208559633        1.1511202861       -1.1903710559
 C         -0.3742147253        2.4187435138       -0.3555225235
 C          1.2045060920        0.0099355963        0.5515448297
 C          1.7193166949       -1.2692012199        1.2053423360
 H         -1.9570796549        0.8579592412        1.4179251226
 H         -0.9238901443       -0.2777170751        2.2841262038
 H         -2.5652104418       -0.7322582261        1.8471192007
 H         -2.0218980532       -0.7000271598       -0.5376780863
 H         -1.0330663337       -1.8441805563        0.3508819444
 H          1.4421100024       -0.8564479674       -1.9982152376
 H         -0.2508623346       -1.2105494643       -2.3419737209
 H          0.6228157370       -2.1730448582       -1.1582120065
 H         -1.1243726522        1.0227690596       -1.7919907627
 H          0.6051424922        1.3213621927       -1.8867104819
 H         -0.5339544718        3.2638341729       -1.0233146941
 H          0.5190159054        2.6205236788        0.2288581938
 H         -1.2244162296        2.3635908881        0.3162207845
 H          0.8725783584        0.6889571327        1.3369536807
 H          2.0371094475        0.4922506685        0.0324966563
 H          0.9172237984       -1.8111205911        1.6989740816
 H          2.4686165150       -1.0189814069        1.9542962341
 H          2.1838962350       -1.9272169603        0.4761700967
