  26
        -26.32059916
 C         -2.5943796503       -0.2856132709        0.1761300303
 C         -1.2357282794       -0.4574678222        0.8476732667
 C          0.0000361241       -0.3331172900       -0.0691332819
 C          0.0001375265       -1.4842622612       -1.0812747724
 C         -0.0000421089        0.9900891487       -0.8548318198
 C         -0.0002066519        2.2590442362       -0.0090327014
 C          1.2357845677       -0.4573025702        0.8477171309
 C          2.5944074360       -0.2853967484        0.1761385417
 H         -3.3824085577       -0.4364090129        0.9115820350
 H         -2.7386382354       -1.0104102225       -0.6205190575
 H         -2.7098444331        0.7126418023       -0.2372012576
 H         -1.2052246923       -1.4449564048        1.3157105320
 H         -1.1525842271        0.2776669843        1.6509048606
 H         -0.8768626454       -1.4363623693       -1.7213175362
 H          0.0009924448       -2.4443144467       -0.5694532220
 H          0.8763737538       -1.4353072831       -1.7222836459
 H         -0.8755049132        1.0025088449       -1.5068944775
 H          0.8754945322        1.0026970078       -1.5067888175
 H         -0.8822120185        2.3122883118        0.6235577941
 H         -0.0001264537        3.1318235801       -0.6595739839
 H          0.8815809670        2.3123247660        0.6238463725
 H          1.2053245805       -1.4447560516        1.3158314642
 H          1.1526195257        0.2778796465        1.6509013437
 H          2.7385500859       -1.0100952735       -0.6206062250
 H          3.3824863625       -0.4363051024        0.9115127455
 H          2.7098771047        0.7129122196       -0.2370698039
  26
        -26.32048357
 C         -1.8431217350       -0.6734001529        1.4798119986
 C         -1.1751190831       -1.0056701632        0.1495218775
 C         -0.0335758810       -0.0651538078       -0.2900322973
 C          0.5044425676       -0.5962697797       -1.6243617417
 C         -0.6105441236        1.3524297952       -0.4887148339
 C          0.3187655898        2.3630110955       -1.1543809075
 C          1.0984685310       -0.0104061427        0.7525505020
 C          1.6958606955       -1.3570953832        1.1483155256
 H         -2.3140952137        0.3054899794        1.4535201732
 H         -1.1275794653       -0.6919824743        2.2972911245
 H         -2.6153022424       -1.4104873087        1.6923665357
 H         -1.9382174372       -0.9955902227       -0.6333666731
 H         -0.7870973335       -2.0246421205        0.2010164771
 H          1.4199072826       -0.0845196422       -1.9087819591
 H         -0.2324708877       -0.4535901665       -2.4120996136
 H          0.7183265119       -1.6601263383       -1.5568915405
 H         -0.9008071053        1.7507716145        0.4852712978
 H         -1.5169126204        1.2717222947       -1.0944975995
 H          0.5743196869        2.0600316192       -2.1658446926
 H          1.2364637168        2.4923547209       -0.5868583185
 H         -0.1787808102        3.3294509718       -1.2097393383
 H          0.7278676371        0.4872626949        1.6511265740
 H          1.9024726949        0.6086961577        0.3498119263
 H          2.5170508137       -1.1995441177        1.8452576470
 H          2.0879833568       -1.8823318360        0.2815546289
 H          0.9610259170       -1.9916923223        1.6360729040
  26
        -26.31990114
 C         -2.0544121647       -1.3019954963        0.9097317992
 C         -1.4111588546        0.0368416593        0.5599364718
 C         -0.0030930165       -0.0337869186       -0.0667423752
 C         -0.0704339929       -0.7280084352       -1.4310252382
 C          0.5442488517        1.3994592978       -0.2298653526
 C         -0.3260879135        2.3587803585       -1.0366206046
 C          0.9272682474       -0.8196903755        0.8803921554
 C          2.3966819996       -0.8813785503        0.4734596569
 H         -1.5173046874       -1.8091722030        1.7064920855
 H         -2.0938210695       -1.9561962726        0.0429874850
 H         -3.0743488644       -1.1342817736        1.2507443197
 H         -1.3565554137        0.6440735542        1.4673265656
 H         -2.0727965065        0.5489579198       -0.1403304291
 H         -0.8999358557       -0.3433281904       -2.0192379599
 H         -0.2085385741       -1.7998453409       -1.3121694236
 H          0.8463084716       -0.5653291070       -1.9924124515
 H          1.5165045687        1.3413392772       -0.7215482100
 H          0.7017505850        1.8255117776        0.7644782976
 H         -0.5436849667        1.9559991041       -2.0221133593
 H          0.2018435456        3.3014983441       -1.1680376249
 H         -1.2639563882        2.5713394253       -0.5308777868
 H          0.5597582244       -1.8446417931        0.9496652171
 H          0.8608516891       -0.3766787024        1.8775824579
 H          2.9335956391       -1.5355329214        1.1579329424
 H          2.8656389149        0.0979052204        0.5137278868
 H          2.5087833322       -1.2817640805       -0.5304805586
  26
        -26.31974162
 C         -2.0890177098       -1.3501044423        0.7707778486
 C         -1.4000405530        0.0052743198        0.6422740148
 C         -0.0006866198       -0.0036355111       -0.0085148094
 C         -0.0604140425       -0.6688259537       -1.3863450124
 C          0.4918618329        1.4531903809       -0.1385074923
 C         -0.2925710078        2.3434290155       -1.0978762087
 C          0.9685880947       -0.7716284206        0.9147544145
 C          2.3856726362       -0.9684908905        0.3842913961
 H         -1.5305384122       -2.0282588935        1.4102486266
 H         -2.2191554365       -1.8172011470       -0.2013957410
 H         -3.0741007493       -1.2133811129        1.2128325805
 H         -1.3146284122        0.4502188365        1.6371145537
 H         -2.0519941098        0.6494917575        0.0505365437
 H          0.8256801072       -0.4263104368       -1.9678280042
 H         -0.9336903620       -0.3297877451       -1.9381665208
 H         -0.1180826618       -1.7500679999       -1.2878328021
 H          1.5284655395        1.4388019910       -0.4782688559
 H          0.4785608244        1.9110272850        0.8540688091
 H         -0.2770358466        1.9410727820       -2.1069753808
 H          0.1600960277        3.3328967491       -1.1233485489
 H         -1.3270291265        2.4604255972       -0.7863145865
 H          0.5510957916       -1.7607715899        1.1082120423
 H          1.0225430268       -0.2455402031        1.8714776777
 H          2.9651987167       -1.5395328621        1.1072316166
 H          2.8937758601       -0.0208815125        0.2269976161
 H          2.3804097253       -1.5194435512       -0.5521169697
  26
        -26.31757223
 C         -1.6313281483       -1.3387829370        1.1822473147
 C         -1.3806121145       -0.0809994080        0.3575726633
 C         -0.0200843320        0.0171901662       -0.3601317122
 C          0.0946545585       -1.0868287422       -1.4168678679
 C          0.0240731317        1.3597204411       -1.1281905108
 C         -0.0219372145        2.6271038873       -0.2800681592
 C          1.1629113072       -0.0274274424        0.6333885825
 C          1.7561366407       -1.4006582057        0.9415132798
 H         -0.9511629618       -1.3950918908        2.0274954414
 H         -1.5261382156       -2.2390504180        0.5829893493
 H         -2.6470169473       -1.3155945043        1.5737480209
 H         -1.4849974049        0.7766187277        1.0243657659
 H         -2.1647306922       -0.0034677687       -0.4005006199
 H          1.0368634734       -1.0011678362       -1.9538777456
 H         -0.7151615937       -0.9955005772       -2.1382620040
 H          0.0426197039       -2.0755673956       -0.9733414438
 H         -0.8139477276        1.3841808300       -1.8294825701
 H          0.9419212678        1.3780237636       -1.7217342852
 H          0.0864972887        3.4973099638       -0.9245896259
 H          0.7834075760        2.6453564715        0.4490642764
 H         -0.9678122898        2.7204788551        0.2465474887
 H          0.8439101966        0.4326615167        1.5709670790
 H          1.9724315801        0.5861102808        0.2299479899
 H          2.5222735230       -1.2934668829        1.7078766941
 H          2.2249713184       -1.8311183882        0.0608260423
 H          1.0089601910       -2.0967645615        1.3085324456
  26
        -26.31741829
 C         -2.3670951508       -0.4006220026        0.6282156751
 C         -0.8662218549       -0.4971416814        0.8856631621
 C          0.0355176691       -0.3408143395       -0.3516344944
 C         -0.3321032815       -1.4081037231       -1.3950220845
 C         -0.1459453859        1.0261094687       -1.0417279653
 C          0.2091878445        2.2663660570       -0.2298633865
 C          1.5155048254       -0.5899302140        0.0318695024
 C          1.9847803760       -0.1162946295        1.4059058817
 H         -2.6370638524        0.5694607835        0.2195084252
 H         -2.9030732446       -0.5281441615        1.5670083289
 H         -2.7043350294       -1.1735723849       -0.0567238126
 H         -0.6564925269       -1.4731991419        1.3307389778
 H         -0.5993335369        0.2617109304        1.6211485732
 H          0.4087184722       -1.4235280314       -2.1921042510
 H         -1.3004223311       -1.2034238789       -1.8440014295
 H         -0.3645344124       -2.3956928364       -0.9397271553
 H         -1.1865527694        1.1103346250       -1.3613424623
 H          0.4637943475        1.0246582103       -1.9494225106
 H          1.2750250388        2.3112213802       -0.0251242743
 H         -0.3332326981        2.2938419454        0.7114725044
 H         -0.0576845249        3.1571914078       -0.7961889922
 H          2.1441177609       -0.1264089219       -0.7322508511
 H          1.6987369839       -1.6666069837       -0.0147671410
 H          3.0592549313       -0.2728481270        1.4868201344
 H          1.5066637971       -0.6826542137        2.2006616902
 H          1.7857087854        0.9378077424        1.5678819452
  26
        -26.31738381
 C         -1.7672381418       -1.3854540793        0.7275730542
 C         -0.9955996449       -0.0764041322        0.8745681796
 C          0.1778318614        0.1552639976       -0.1038022118
 C         -0.0583112097       -0.5135411392       -1.4588027092
 C          0.3555161608        1.6797219867       -0.3032344954
 C         -0.7028353119        2.3699618068       -1.1582056008
 C          1.5113812377       -0.3422835167        0.4974226305
 C          1.5598118073       -1.7920106183        0.9663849937
 H         -2.2866556584       -1.4273079322       -0.2259451257
 H         -2.5138021466       -1.4516181408        1.5174760594
 H         -1.1193543446       -2.2525495856        0.8034186849
 H         -0.6076937024       -0.0051688546        1.8936101212
 H         -1.7158443110        0.7351762109        0.7551722229
 H         -1.0227174496       -0.2296780689       -1.8699608541
 H         -0.0327745745       -1.5954063427       -1.3710915089
 H          0.7179203030       -0.2119084827       -2.1596212175
 H          1.3301209893        1.8581657455       -0.7643436070
 H          0.3730175267        2.1501670053        0.6833752024
 H         -1.7077806841        2.1654322684       -0.7969992134
 H         -0.6385378156        2.0515289258       -2.1949578084
 H         -0.5485990646        3.4467337955       -1.1277919802
 H          1.7613427927        0.2982039435        1.3478402042
 H          2.2919842667       -0.1998739747       -0.2546573577
 H          1.3071879064       -2.4791589106        0.1630884889
 H          0.8839772315       -1.9598311328        1.8001626543
 H          2.5682253735       -2.0280383884        1.3018629640
  26
        -26.31731849
 C         -1.5669532525        0.0723006541        1.5880545814
 C         -1.1359126055       -0.7480348642        0.3740758930
 C          0.1267793899       -0.2888917897       -0.3900584676
 C          0.0308627727       -0.8501168393       -1.8173949263
 C          0.2662213944        1.2425691527       -0.4461684600
 C         -0.8154811476        1.9656459798       -1.2445856105
 C          1.4115546622       -0.8995537544        0.2136862476
 C          1.7371092596       -0.5646525883        1.6648582818
 H         -2.4117673261       -0.4205926797        2.0669361150
 H         -1.8859241167        1.0697282436        1.2989275901
 H         -0.7739239654        0.1672661909        2.3219865471
 H         -1.9750256737       -0.7584433977       -0.3259199132
 H         -0.9766790066       -1.7821688625        0.6897061828
 H         -0.8697816358       -0.5060192854       -2.3177302240
 H          0.0046629843       -1.9378176507       -1.7921842578
 H          0.8919449389       -0.5438489001       -2.4077931042
 H          1.2364275395        1.4808820093       -0.8900356108
 H          0.2711608291        1.6362444150        0.5700836430
 H         -0.7167434656        3.0405548015       -1.1039149983
 H         -1.8104991380        1.6716981812       -0.9221317195
 H         -0.7240746422        1.7598499591       -2.3076672211
 H          2.2526557433       -0.5790061049       -0.4072051113
 H          1.3447188585       -1.9872262668        0.1248683501
 H          2.7183463583       -0.9653217917        1.9140318131
 H          1.0160649406       -1.0117958862        2.3431172938
 H          1.7627758350        0.5089445632        1.8305307206
  26
        -26.31719044
 C         -2.6661164040       -0.6704484444        0.2551753736
 C         -1.2721799910       -0.8106148126        0.8593693439
 C         -0.1002777774       -0.1981701013        0.0548365424
 C          0.0756755944       -0.9740376994       -1.2516415496
 C         -0.4325091046        1.2782698696       -0.2380121132
 C          0.6931488110        2.1320274358       -0.8115277843
 C          1.1498474678       -0.3307793580        0.9595733169
 C          2.5057771803       -0.4512787694        0.2678959387
 H         -3.3826739951       -1.2017874876        0.8786351859
 H         -2.7117021798       -1.0976433589       -0.7429131049
 H         -2.9756474055        0.3696942580        0.2040174161
 H         -1.0666330934       -1.8754474052        0.9963763493
 H         -1.2817199095       -0.3502008890        1.8510692719
 H          0.2784196597       -2.0228559952       -1.0458519262
 H          0.8954993651       -0.5739760671       -1.8399622113
 H         -0.8268417061       -0.9123397678       -1.8543844894
 H         -0.7735879121        1.7430565931        0.6911207548
 H         -1.2641197737        1.3045304695       -0.9445863956
 H          1.0857897242        1.7036712330       -1.7300607199
 H          1.5052144175        2.2483576362       -0.0994141645
 H          0.3094999270        3.1242385958       -1.0436095824
 H          1.0290966180       -1.2229894834        1.5797610392
 H          1.1712495470        0.5252936497        1.6379505875
 H          3.2901211470       -0.4617106519        1.0230710804
 H          2.6992873743        0.3764806186       -0.4060699806
 H          2.5744815618       -1.3780706199       -0.2952237002
  26
        -26.31685791
 C         -1.6834172218       -0.1876618845        1.5127363542
 C         -1.2085054657       -0.7778592543        0.1883871921
 C          0.0611746366       -0.1827303321       -0.4587888653
 C          0.4991631439       -1.1690349431       -1.5545233414
 C         -0.2208559633        1.1511202861       -1.1903710559
 C         -0.3742147253        2.4187435138       -0.3555225235
 C          1.2045060920        0.0099355963        0.5515448297
 C          1.7193166949       -1.2692012199        1.2053423360
 H         -1.9570796549        0.8579592412        1.4179251226
 H         -0.9238901443       -0.2777170751        2.2841262038
 H         -2.5652104418       -0.7322582261        1.8471192007
 H         -2.0218980532       -0.7000271598       -0.5376780863
 H         -1.0330663337       -1.8441805563        0.3508819444
 H          1.4421100024       -0.8564479674       -1.9982152376
 H         -0.2508623346       -1.2105494643       -2.3419737209
 H          0.6228157370       -2.1730448582       -1.1582120065
 H         -1.1243726522        1.0227690596       -1.7919907627
 H          0.6051424922        1.3213621927       -1.8867104819
 H         -0.5339544718        3.2638341729       -1.0233146941
 H          0.5190159054        2.6205236788        0.2288581938
 H         -1.2244162296        2.3635908881        0.3162207845
 H          0.8725783584        0.6889571327        1.3369536807
 H          2.0371094475        0.4922506685        0.0324966563
 H          0.9172237984       -1.8111205911        1.6989740816
 H          2.4686165150       -1.0189814069        1.9542962341
 H          2.1838962350       -1.9272169603        0.4761700967
  26
        -26.31557184
 C         -1.6822647302       -1.8252169619        0.7352697244
 C         -1.3866439426       -0.3284885333        0.7101373614
 C         -0.1405395759        0.1594269695       -0.0679977405
 C         -0.0559218904       -0.5126859741       -1.4381593936
 C         -0.3441315836        1.6853749068       -0.2503726682
 C          0.6426435686        2.4096782749       -1.1615623788
 C          1.1597225441       -0.0445300529        0.7385815141
 C          1.7520120192       -1.4495100069        0.7905873294
 H         -1.8668492726       -2.2079400069       -0.2646213503
 H         -2.5797913653       -1.9966714033        1.3274828138
 H         -0.8759881689       -2.3961716438        1.1828877956
 H         -1.3030799666        0.0275935681        1.7400781980
 H         -2.2641631244        0.1585021711        0.2756897813
 H         -0.0260744569       -1.5933938232       -1.3433465692
 H          0.8419718818       -0.1964906637       -1.9625148169
 H         -0.9225116618       -0.2450407737       -2.0396068766
 H         -0.3147687216        2.1506629196        0.7383460236
 H         -1.3446192283        1.8526987716       -0.6569022469
 H          1.6706484227        2.2883919608       -0.8303966434
 H          0.4168769050        3.4742965146       -1.1579794214
 H          0.5645660337        2.0551916319       -2.1856255856
 H          0.9846431537        0.2987799997        1.7615242178
 H          1.9257873460        0.6039230265        0.3098136527
 H          1.0995453159       -2.1493827227        1.3022992490
 H          2.6938577026       -1.4171175024        1.3362931158
 H          1.9568491444       -1.8285959887       -0.2065300783
