  40
        -65.19681462
 O         -2.9021382451        3.3888125334       -0.1419235978
 C         -3.6301800890        2.2269332670        0.1545192836
 C         -2.7299166719        1.0260417129        0.5360125907
 C         -1.7785382871        0.7001780360       -0.6336225692
 O         -0.9363261958        1.7602291574       -1.0007919222
 C         -1.9535743626        1.3657977042        1.8321623724
 O         -1.1775537509        2.5315345286        1.7369900878
 C         -3.6525637449       -0.1592295021        0.7890972060
 Br        -2.7008656213       -1.7749837910        1.3202127911
 H         -2.3086094204        3.5482151625        0.6182279812
 H         -4.2101690873        1.9905215262       -0.7439199709
 H         -4.3362377037        2.4179816290        0.9765531934
 H         -2.3858597610        0.3863701655       -1.4981781128
 H         -1.1243689571       -0.1332147280       -0.3603556427
 H         -1.4911689407        2.5583008752       -1.0746061796
 H         -1.3281829429        0.5122455897        2.1157111646
 H         -2.6793128307        1.5416811356        2.6354937637
 H         -0.3295235652        2.2916919630        1.3235450508
 H         -4.2084637490       -0.4246831949       -0.1098904978
 H         -4.3507704198        0.0537169597        1.5983144593
 O          3.6077366416        2.6260544522        0.1253888444
 C          4.0474288480        1.3267760625       -0.1684988701
 C          2.8929516922        0.3637913511       -0.5400108444
 C          1.8970411054        0.2723826895        0.6344028039
 O          1.3200490247        1.4993021854        0.9943855184
 C          2.2105700554        0.8663419296       -1.8361634661
 O          1.7294075825        2.1819958251       -1.7479551408
 C          3.5163294948       -1.0036590822       -0.7883358244
 Br         2.2159345247       -2.3585423979       -1.3095751181
 H          3.0649504443        2.9154090863       -0.6343611131
 H          4.5624147982        0.9666738627        0.7284752087
 H          4.7738817456        1.3471305527       -0.9946866552
 H          2.4203897779       -0.1649208077        1.5002019500
 H          1.0690558903       -0.3920550272        0.3696485395
 H          2.0431408301        2.1493102065        1.0636372349
 H          1.4012261203        0.1809065832       -2.1102075301
 H          2.9529410278        0.8614621618       -2.6434982900
 H          0.8494497475        2.1495264235       -1.3329906427
 H          3.9984040174       -1.3861141520        0.1111079727
 H          4.2425959209       -0.9614631254       -1.5997765830
