  40
        -65.19694724
 O         -2.6057898899        3.5369484854        0.8236471911
 C         -3.4973211442        2.4571281618        0.7469782605
 C         -2.7869092815        1.0851555944        0.6335614485
 C         -1.8966625935        1.0618478929       -0.6250715554
 O         -0.8946286811        2.0422212041       -0.6313084542
 C         -1.9644691424        0.8247067542        1.9205508045
 O         -1.0993729418        1.8723278617        2.2707030694
 C         -3.8810110399        0.0332161407        0.5028353770
 Br        -3.1909282857       -1.7862420191        0.3862777143
 H         -2.0117268842        3.3479202963        1.5777259710
 H         -4.1156248852        2.6315863156       -0.1398812985
 H         -4.1572257297        2.4431845903        1.6270313467
 H         -2.5418864655        1.1760233915       -1.5113925250
 H         -1.3834109378        0.0977253770       -0.6993595933
 H         -1.3119586831        2.8894676864       -0.3908500430
 H         -1.4123757670       -0.1160167060        1.8118068173
 H         -2.6621792533        0.7150714647        2.7596478359
 H         -0.2771932954        1.7981455322        1.7493803011
 H         -4.4670105411        0.1867869560       -0.4032042378
 H         -4.5424787320        0.0453897795        1.3687796467
 O          3.4487278018        2.8364005618       -0.1401496995
 C          4.0301751914        1.5723683668       -0.3157903633
 C          2.9880479606        0.4365888926       -0.4702561087
 C          2.0884859246        0.3811727732        0.7807296081
 O          1.3718216156        1.5622797258        1.0186730675
 C          2.1609307979        0.6702508444       -1.7594059945
 O          1.6055689988        1.9547471900       -1.8601662251
 C          3.7709578110       -0.8645084364       -0.5924127577
 Br         2.6335100973       -2.4284316023       -0.8385413760
 H          2.8468210532        2.9682559108       -0.9001507642
 H          4.6489244729        1.3930782450        0.5697882859
 H          4.6872439897        1.5732498703       -1.1980640566
 H          2.7175891072        0.1392339643        1.6528536157
 H          1.3432143512       -0.4127169683        0.6676562903
 H          1.9990729806        2.3048510033        0.9482949899
 H          1.3818554233       -0.0974116400       -1.8323897890
 H          2.8288052266        0.5607655411       -2.6224566944
 H          0.7782349193        1.9889007001       -1.3428304460
 H          4.3519001005       -1.0592088513        0.3089658007
 H          4.4366056875       -0.8423621052       -1.4549502830
