  40
        -65.19602089
 O         -2.8812740811        3.2641870539        0.2528906740
 C         -3.8330504887        2.2740411424        0.5365381635
 C         -3.2039149376        0.8971372934        0.8627222876
 C         -2.3652983426        0.4061812859       -0.3357094584
 O         -1.3592321184        1.2935128744       -0.7456345876
 C         -2.3447016011        1.0214024490        2.1439817351
 O         -1.3139159101        1.9672369575        2.0330681067
 C         -4.3563913920       -0.0674813710        1.1100627524
 Br        -3.7695079180       -1.8832772970        1.4958634671
 H         -2.2449949329        3.2687668662        0.9938556798
 H         -4.4674342967        2.1959746502       -0.3529630339
 H         -4.4667806068        2.5832724099        1.3813169339
 H         -3.0484687415        0.2029805566       -1.1767379872
 H         -1.8597349880       -0.5282283687       -0.0727860209
 H         -1.7563858017        2.1838105311       -0.7866389411
 H         -1.9351470208        0.0390052152        2.4043327822
 H         -2.9878028680        1.3566262574        2.9666659648
 H         -0.5630650925        1.5329118292        1.5936065685
 H         -5.0007124808       -0.1447442092        0.2343694461
 H         -4.9491603184        0.2425197893        1.9703519719
 O          0.8193834370        0.3145071560        1.2884829182
 C          1.3709721106       -0.6648438611        0.4503850022
 C          2.4903986950       -0.1448155224       -0.4830918677
 C          1.9331400705        0.8787263615       -1.5016615452
 O          1.3614851808        2.0096673565       -0.8997818515
 C          3.6057401891        0.5154346659        0.3562783107
 O          3.1498403806        1.6005319093        1.1262617473
 C          3.0358558351       -1.3631313196       -1.2174363749
 Br         4.4679034053       -0.9438521019       -2.4692441973
 H          1.5661054963        0.8269478045        1.6576588113
 H          0.5464910549       -1.0639014440       -0.1491998468
 H          1.7783967826       -1.4871708130        1.0596985999
 H          1.2067849304        0.3772930540       -2.1535897400
 H          2.7563548545        1.2473490313       -2.1231285197
 H          0.4585360187        1.7770918062       -0.6263563931
 H          4.4145695739        0.8416058939       -0.3120973705
 H          4.0195661498       -0.2087744818        1.0665517127
 H          2.7041493185        2.2160465590        0.5160658703
 H          2.2564490554       -1.8429911978       -1.8090425509
 H          3.4584041822       -2.0854544399       -0.5191756309
