  40
        -65.19568868
 O         -1.1204421399        1.9656728856        1.6733961598
 C         -2.1616024423        1.0386259279        1.8061822435
 C         -2.8674947341        0.7080090179        0.4634275274
 C         -3.5243416864        1.9887313779       -0.0952807860
 O         -2.6004552573        3.0076225542       -0.3829181651
 C         -1.8679282289        0.1295194840       -0.5590951164
 O         -0.8914874245        1.0406741154       -0.9979250254
 C         -3.9321772010       -0.3322083074        0.7889558870
 Br        -5.0227211372       -0.8482815502       -0.7410384892
 H         -0.3322189904        1.4811122689        1.3709624753
 H         -2.8930954621        1.4864336538        2.4886223003
 H         -1.7951756882        0.1086888335        2.2574789632
 H         -4.2756018046        2.3454775744        0.6258146941
 H         -4.0341263414        1.7723027923       -1.0395253753
 H         -2.0584531144        3.1462198749        0.4142161825
 H         -2.4303835004       -0.2445879400       -1.4273287423
 H         -1.3290590543       -0.7108961487       -0.1087213716
 H         -1.3529423008        1.8791579638       -1.1930048782
 H         -4.6313170279        0.0471162487        1.5338795085
 H         -3.4781262788       -1.2535713333        1.1531056263
 O          1.5928963305        2.2527387246       -0.5513834551
 C          2.4210085395        1.3147926940       -1.1803747266
 C          2.9715566325        0.2321605062       -0.2132533296
 C          3.8506157481        0.9085177843        0.8608458500
 O          3.1451309292        1.8214958261        1.6628216838
 C          1.8215298223       -0.5513989688        0.4521535605
 O          1.0337159927        0.2084816747        1.3343585443
 C          3.8117473518       -0.7103357663       -1.0660866091
 Br         4.6900822865       -2.1209514988       -0.0487271254
 H          0.7059666534        1.8585290817       -0.4777353527
 H          3.2644198067        1.8749296923       -1.6001696442
 H          1.8905578276        0.8232211375       -2.0048070931
 H          4.6957377314        1.4088603479        0.3637986918
 H          4.2549110863        0.1578843925        1.5474269502
 H          2.6864247549        2.4412496845        1.0678498942
 H          2.2478347499       -1.4085715695        0.9940621503
 H          1.1443867341       -0.9329503761       -0.3194593701
 H          1.6483990558        0.7284762740        1.8874038299
 H          4.6122244146       -0.1691869605       -1.5700484882
 H          3.1953424583       -1.2194494963       -1.8067095665
