  40
        -65.19712018
 O         -2.8512293676        3.4835272586        0.3865921392
 C         -3.5898708755        2.2939312493        0.4674199588
 C         -2.6995419058        1.0323180183        0.5870201750
 C         -1.7724161090        0.9337834918       -0.6413880846
 O         -0.9124143094        2.0300333600       -0.7992429760
 C         -1.8977005405        1.0996526255        1.9106535231
 O         -1.1441744956        2.2737185934        2.0619302229
 C         -3.6341514365       -0.1703058951        0.6162759189
 Br        -2.6961395972       -1.8694315613        0.8105058363
 H         -2.2516257930        3.4897090705        1.1593503030
 H         -4.1911653819        2.2427973092       -0.4464638328
 H         -4.2760317364        2.3276240898        1.3268079121
 H         -2.3988106820        0.8140645208       -1.5404695381
 H         -1.1330346458        0.0497191389       -0.5541067033
 H         -1.4483718809        2.8379662091       -0.7004498394
 H         -1.2551460213        0.2156871387        1.9905101233
 H         -2.6082764356        1.0813432280        2.7459567880
 H         -0.3015577412        2.1633175024        1.5835674947
 H         -4.2025370941       -0.2495672975       -0.3102107657
 H         -4.3213334046       -0.1126341100        1.4600116257
 O          3.6048085548        2.7211788139       -0.0776473064
 C          4.0388693730        1.4035637502       -0.2844180734
 C          2.8745358667        0.4088299324       -0.5157183618
 C          1.9368925111        0.4143441137        0.7086731815
 O          1.3619166399        1.6632307691        0.9842445320
 C          2.1271190014        0.7950672649       -1.8163574269
 O          1.6784071209        2.1243654529       -1.8430124504
 C          3.4951477603       -0.9733265361       -0.6743370311
 Br         2.1808004129       -2.3722288038       -1.0214625850
 H          3.0328733055        2.9463398532       -0.8385267678
 H          4.6006830991        1.1207136518        0.6120649011
 H          4.7224105745        1.3568996027       -1.1452884598
 H          2.5063613298        0.0606501077        1.5836941571
 H          1.1058457258       -0.2784218412        0.5430619310
 H          2.0763983213        2.3254836665        0.9585042321
 H          1.2925424395        0.1027622497       -1.9739666594
 H          2.8220176557        0.6888242095       -2.6582752261
 H          0.8284439497        2.1727188589       -1.3673633236
 H          4.0179797530       -1.2761874093        0.2326378658
 H          4.1855957176       -0.9987234718       -1.5170162760
