  40
        -65.19685074
 O         -2.5237841144        3.5279387835        0.9431995760
 C         -3.4638627535        2.4933200556        0.8318035016
 C         -2.8177475058        1.0975127196        0.6462592162
 C         -1.9425083010        1.0930448746       -0.6229420985
 O         -0.8919582922        2.0205586273       -0.5905889518
 C         -1.9938787556        0.7392492129        1.9088188130
 O         -1.0932383370        1.7373496547        2.3102498494
 C         -3.9604562320        0.1038712070        0.4802829879
 Br        -3.3569242401       -1.7379492982        0.2754230507
 H         -1.9351071634        3.2822104042        1.6850530801
 H         -4.0849673315        2.7349082755       -0.0371372787
 H         -4.1122110426        2.4687839261        1.7200877093
 H         -2.5891521709        1.2848219278       -1.4946418028
 H         -1.4792980905        0.1095500336       -0.7518467727
 H         -1.2650452849        2.8757119992       -0.3090441436
 H         -1.4735173086       -0.2110802812        1.7420675389
 H         -2.6881695896        0.6048232283        2.7471155268
 H         -0.2770927820        1.6715079771        1.7781772363
 H         -4.5462665442        0.3249364726       -0.4118413686
 H         -4.6134302809        0.1074083810        1.3527404218
 O          3.3916152495        2.8601780606       -0.1484494042
 C          4.0226100363        1.6196225257       -0.3200909029
 C          3.0266975069        0.4405753910       -0.4549060989
 C          2.1400143740        0.3609586254        0.8038193557
 O          1.3717754092        1.5114531140        1.0299937277
 C          2.1793946572        0.6261745357       -1.7389618996
 O          1.5862943524        1.8920316000       -1.8587206823
 C          3.8620696267       -0.8280758812       -0.5703720082
 Br         2.7893884352       -2.4397036617       -0.7951626618
 H          2.7836383773        2.9637988672       -0.9079865693
 H          4.6565985181        1.4730220104        0.5606820335
 H          4.6704260745        1.6400864489       -1.2088665546
 H          2.7854537510        0.1604205924        1.6744396813
 H          1.4306684918       -0.4672656371        0.7073041505
 H          1.9654772821        2.2801827235        0.9504844112
 H          1.4224417961       -0.1651753442       -1.7889218811
 H          2.8410005877        0.5198913726       -2.6071975313
 H          0.7645825337        1.9169136328       -1.3317479484
 H          4.4558843413       -0.9901564314        0.3290963792
 H          4.5211938874       -0.7864054591       -1.4371985397
