  40
        -65.19702380
 O         -2.9013195251        3.5573008706        0.7287876223
 C         -3.8264401167        2.5177664502        0.8957381615
 C         -3.1680844038        1.1157778057        0.9195968185
 C         -2.3948865569        0.8831716804       -0.3941885114
 O         -1.3487006137        1.7889854419       -0.6079302922
 C         -2.2418575985        1.0053975042        2.1569565518
 O         -1.3266358216        2.0595972567        2.2866532665
 C         -4.2950308372        0.0975824259        1.0317192232
 Br        -3.6580712806       -1.7399476363        1.1165482633
 H         -2.2495179415        3.4637387211        1.4517637080
 H         -4.5229225638        2.5883671371        0.0536693997
 H         -4.3974291645        2.6579210514        1.8255630552
 H         -3.1100253194        0.9236859084       -1.2319092805
 H         -1.9387458649       -0.1120718386       -0.3845294146
 H         -1.7054804846        2.6860153796       -0.4786805515
 H         -1.7221612941        0.0401522197        2.1336750484
 H         -2.8662918058        1.0336664083        3.0583324312
 H         -0.5533657970        1.8864108894        1.7161287439
 H         -4.9543290108        0.1426598238        0.1649850693
 H         -4.8775216067        0.2522723568        1.9396486044
 O          1.0151561854        1.4560493369        0.9007166925
 C          1.7071339206        0.2389496388        0.8843460052
 C          2.5176735867        0.0027838577       -0.4108378190
 C          1.5932660886       -0.0163041904       -1.6534960060
 O          1.0382889467        1.2294520558       -1.9783373801
 C          3.5790427921        1.1149534274       -0.5649517864
 O          3.0238214601        2.4061386984       -0.6006926702
 C          3.1922537033       -1.3541514915       -0.2477250221
 Br         4.3545617079       -1.8397716089       -1.7329024062
 H          1.6436129951        2.1471652174        0.6136317063
 H          0.9561181589       -0.5501760448        1.0007248826
 H          2.3942200882        0.1846510077        1.7439082560
 H          0.8104091896       -0.7720802276       -1.5035166471
 H          2.1875820303       -0.3099975279       -2.5257498336
 H          0.2745505369        1.4134473408       -1.4002699264
 H          4.1644413825        0.9313740244       -1.4757043959
 H          4.2615334562        1.0993101923        0.2916470556
 H          2.4026748094        2.4159843716       -1.3538634328
 H          2.4525223431       -2.1516369998       -0.1780683620
 H          3.8269771849       -1.3695933919        0.6381902455
