  40
        -65.19674285
 O         -0.4810528603        1.4632405013        0.8905485965
 C         -1.6530617876        1.9451887960        0.2944587798
 C         -2.8566415815        0.9810359671        0.4093942566
 C         -2.5770742488       -0.3572543300       -0.3186976581
 O         -1.5678826846       -1.1296302098        0.2733316875
 C         -3.1604456911        0.7092273468        1.8994869821
 O         -2.0725214110        0.1412699961        2.5871046272
 C         -4.0329905956        1.6913323321       -0.2497200950
 Br        -5.7012307728        0.6893760174       -0.1742492557
 H         -0.7350412848        1.0962585428        1.7605064981
 H         -1.4163862260        2.1223631610       -0.7599655548
 H         -1.9334107722        2.9091889751        0.7488350522
 H         -2.3470172157       -0.1496413334       -1.3717230477
 H         -3.4833647918       -0.9717831430       -0.2801864153
 H         -0.6980402821       -0.7990767740       -0.0188458698
 H         -4.0372618002        0.0524751261        1.9761469687
 H         -3.3895325765        1.6496695167        2.4123553817
 H         -1.8396423243       -0.6741448709        2.1023251739
 H         -3.8389617446        1.8643184724       -1.3081715650
 H         -4.2396731930        2.6421676789        0.2412891464
 O          1.9955987816        2.1803382247       -0.1802511452
 C          2.9684700217        1.4211639521        0.4813799251
 C          3.2705079597        0.0522611542       -0.1889131387
 C          2.0493099696       -0.8857307467       -0.1114691971
 O          0.9151925956       -0.3918093180       -0.7747040677
 C          3.6701409782        0.2790559776       -1.6637841996
 O          2.6439763333        0.8521789578       -2.4335057580
 C          4.4364531130       -0.5500663603        0.5851892857
 Br         5.0289382026       -2.2736533332       -0.1028887078
 H          1.1137944084        1.8443281966        0.0689757244
 H          2.6860551522        1.2510438122        1.5280033448
 H          3.8839010062        2.0243048242        0.4684456369
 H          1.7569925130       -1.0305629157        0.9341289479
 H          2.3267654876       -1.8637995143       -0.5310553759
 H          1.2052834388       -0.1039998083       -1.6601657098
 H          3.9058760337       -0.6770412182       -2.1413300189
 H          4.5705065531        0.9110654051       -1.6955304149
 H          2.3787198396        1.6734896219       -1.9788582325
 H          4.1650163636       -0.7237792965        1.6263020099
 H          5.3106684037        0.0991384119        0.5413384775
