  40
        -65.19543001
 O         -0.6210917768        1.6949570026       -1.1766494629
 C         -1.5526577959        0.7303186187       -1.5757788952
 C         -2.7743651988        0.6082789389       -0.6355018276
 C         -2.3458990823        0.1819323646        0.7905507068
 O         -1.5947459102        1.1469667210        1.4744359349
 C         -3.5139850791        1.9630900119       -0.5736164647
 O         -2.6985524465        3.0156446832       -0.1231377288
 C         -3.6750247847       -0.4592011497       -1.2455084879
 Br        -5.3337763838       -0.7460155057       -0.2652708787
 H         -1.1240666568        2.4995110503       -0.9409861489
 H         -1.0173929017       -0.2252761733       -1.6117730814
 H         -1.9150710044        0.9551113568       -2.5922006265
 H         -1.8032689699       -0.7711285544        0.7309785794
 H         -3.2471924588        0.0234458166        1.3929807921
 H         -0.6651224766        1.0988344755        1.1843115375
 H         -4.3946105303        1.8637874515        0.0750948028
 H         -3.8552043945        2.2476864601       -1.5749204424
 H         -2.3663085546        2.7515752543        0.7559657743
 H         -3.1737656279       -1.4269616393       -1.2663183389
 H         -3.9757179530       -0.1848552193       -2.2566121744
 O          2.1463171499        1.9424603534       -1.5373927484
 C          2.7438765993        0.6804307543       -1.6223753627
 C          3.1712227250        0.0815028681       -0.2534696009
 C          4.0703733437        1.0913893728        0.4937196192
 O          3.4115214735        2.2878836062        0.8179222789
 C          1.9402139252       -0.2630693484        0.6081502503
 O          1.1293899252        0.8434263098        0.8979751463
 C          3.9570115334       -1.1846015316       -0.5709711437
 Br         4.6079335841       -2.1229708216        1.0080839455
 H          1.2126859447        1.8407755525       -1.2713500037
 H          3.6410793264        0.8117399533       -2.2386040720
 H          2.0838265593       -0.0335669634       -2.1328392679
 H          4.9598430012        1.2968518463       -0.1208139882
 H          4.4023023975        0.6643392512        1.4452308208
 H          3.0731947617        2.6600107692       -0.0175152096
 H          2.2801594112       -0.7321426240        1.5431572522
 H          1.3062869871       -0.9818593558        0.0761797758
 H          1.7149093390        1.5479836956        1.2327987132
 H          4.8435797802       -0.9549248723       -1.1616169492
 H          3.3397959442       -1.9039667008       -1.1091999602
