  40
        -65.19614497
 O         -2.6487942861        3.1507467377        1.7829399895
 C         -3.4547969454        2.0603376873        1.4272650538
 C         -2.6749911961        0.9495737097        0.6804840099
 C         -2.0036001280        1.5468359434       -0.5718681332
 O         -0.9837600138        2.4637307468       -0.2776427395
 C         -1.6307550114        0.3185233293        1.6363557480
 O         -0.8625848939        1.2520893468        2.3490682657
 C         -3.6906643632       -0.1042323316        0.2593579756
 Br        -2.8817965673       -1.6273932390       -0.6514647488
 H         -1.9497265338        2.7912803800        2.3633051884
 H         -4.2423761069        2.4592641689        0.7798490106
 H         -3.9295346975        1.6254130951        2.3186157984
 H         -2.7772887023        2.0226900421       -1.1940236441
 H         -1.5391118926        0.7504265359       -1.1610369945
 H         -1.3659423842        3.1441878621        0.3031552319
 H         -0.9909050702       -0.3675334032        1.0687066852
 H         -2.1653933837       -0.2674403762        2.3931305627
 H         -0.1289684267        1.5724841595        1.7926885783
 H         -4.4167482589        0.3086635422       -0.4407212837
 H         -4.2117407426       -0.5162154147        1.1230778893
 O          3.3989610546        2.8354103921       -0.7442420517
 C          3.9051560467        1.5295351433       -0.8034251787
 C          2.8513068384        0.4550771314       -0.4367064051
 C          2.2899511960        0.7454768576        0.9691586886
 O          1.5318455515        1.9235769947        1.0376946173
 C          1.7279754657        0.4465905267       -1.5045953280
 O          1.2355209040        1.7187682591       -1.8342402371
 C          3.5663816382       -0.8895655863       -0.4309769534
 Br         2.3786249265       -2.3876202812       -0.0448920049
 H          2.6587115580        2.8666157678       -1.3813377325
 H          4.7369688324        1.4903418574       -0.0926834603
 H          4.2997078044        1.3145206402       -1.8070094443
 H          3.1281004199        0.7885979948        1.6817180880
 H          1.6244240050       -0.0656943745        1.2793259316
 H          2.0896354631        2.6460265273        0.7011251778
 H          0.9195037417       -0.2151792532       -1.1718783640
 H          2.1388691624        0.0358336796       -2.4343061831
 H          0.5760668006        2.0009341754       -1.1739927764
 H          4.3398007415       -0.9190633664        0.3363055747
 H          4.0099047572       -1.1037981793       -1.4029111353
