  40
        -65.19562405
 O         -1.2297586209        1.9862067980        1.7432279343
 C         -2.2051187397        0.9832129539        1.8058846631
 C         -2.8871387550        0.6974969641        0.4404420509
 C         -3.5961394551        1.9772505943       -0.0534814206
 O         -2.7151892642        3.0477869088       -0.2809854520
 C         -1.8561319182        0.2237553116       -0.6040484417
 O         -0.8967825854        1.1902555160       -0.9497630013
 C         -3.9070133153       -0.4048383918        0.6970146026
 Br        -4.9494616536       -0.8935467187       -0.8749636519
 H         -0.4119184520        1.5824326969        1.4044823654
 H         -2.9656996206        1.3331040057        2.5132430433
 H         -1.7768074067        0.0516035153        2.1953599157
 H         -4.3647167739        2.2629603604        0.6808246916
 H         -4.0920876006        1.7894216020       -1.0110772681
 H         -2.1937101480        3.1732234645        0.5322901672
 H         -2.3935439138       -0.0964296666       -1.5090754755
 H         -1.3039881232       -0.6360506078       -0.2094180382
 H         -1.3784732294        2.0268046661       -1.0981989556
 H         -4.6341226618       -0.0951718145        1.4473551861
 H         -3.4166726436       -1.3216978516        1.0236190974
 O          1.6924617291        2.2494371602       -0.7634602503
 C          2.4462597358        1.1989013201       -1.3013937355
 C          2.9876364762        0.2141289786       -0.2297813949
 C          3.9190101559        0.9753429071        0.7384594133
 O          3.2667072564        1.9970306179        1.4488205354
 C          1.8315335291       -0.4434537243        0.5508195136
 O          1.0766462510        0.4503101741        1.3288352616
 C          3.7710279023       -0.8504166113       -0.9875325833
 Br         4.6129643869       -2.1770809859        0.1647743461
 H          0.7947601005        1.9137301443       -0.5960121016
 H          3.2960061915        1.6592035877       -1.8184263182
 H          1.8579558305        0.6393390815       -2.0388537411
 H          4.7654606971        1.3861155854        0.1671915809
 H          4.3175360459        0.2923522223        1.4953781196
 H          2.8221984554        2.5674854278        0.7961184357
 H          2.2465745527       -1.2297878584        1.1987674726
 H          1.1336851187       -0.9100864957       -0.1528366181
 H          1.7125153991        1.0202764856        1.8028543131
 H          4.5820130174       -0.4021041823       -1.5610105596
 H          3.1196610377       -1.4112237079       -1.6575851053
