  40
        -65.19566363
 O         -1.3804150478        1.8702149906        1.8931921703
 C         -2.2593095319        0.7853280691        1.7930000798
 C         -2.9098087419        0.6347147366        0.3904649475
 C         -3.6802489360        1.9271274123        0.0419154161
 O         -2.8539356935        3.0595799074       -0.0459917312
 C         -1.8442323436        0.3492555428       -0.6868346158
 O         -0.9118614272        1.3843810572       -0.8581051738
 C         -3.8736170026       -0.5405650236        0.4935815007
 Br        -4.8497145352       -0.9045083932       -1.1531121624
 H         -0.5264700961        1.6065131060        1.5069686832
 H         -3.0519475733        0.9622262759        2.5291758145
 H         -1.7521666186       -0.1516410135        2.0556001210
 H         -4.4678532833        2.0848675219        0.7943414006
 H         -4.1582918907        1.8282905714       -0.9378439319
 H         -2.3599135695        3.1205133283        0.7921924801
 H         -2.3525548881        0.1495147934       -1.6420652171
 H         -1.2719253710       -0.5433440183       -0.4103863224
 H         -1.4185455471        2.2175547096       -0.9059480444
 H         -4.6347502132       -0.3539722833        1.2508520323
 H         -3.3428403996       -1.4619313050        0.7328886836
 O          1.7811164232        2.1061504766       -1.1757125146
 C          2.4293395569        0.9053782987       -1.4878484425
 C          2.9897054819        0.1563777662       -0.2477248153
 C          3.9837023693        1.0733337871        0.4982916015
 O          3.3901109000        2.2427773485        1.0013063851
 C          1.8526204399       -0.2715745500        0.7017087655
 O          1.1331150752        0.8002676173        1.2527219844
 C          3.7102530719       -1.0737979089       -0.7846664626
 Br         4.5394905659       -2.1665545825        0.5991883017
 H          0.8796936749        1.8954188323       -0.8742066473
 H          3.2660469794        1.1689540095       -2.1450848627
 H          1.7596348362        0.2340066274       -2.0399465537
 H          4.8122950593        1.3256741862       -0.1807593523
 H          4.3996027100        0.5513788104        1.3659399719
 H          2.9463945887        2.6841291168        0.2538869977
 H          2.2794699491       -0.8833036377        1.5106169509
 H          1.1280597003       -0.8849371188        0.1544684560
 H          1.7896070300        1.4507244266        1.5675317990
 H          4.5189358874       -0.7881870051       -1.4570188457
 H          3.0194819510       -1.7340168027       -1.3089323363
