  40
        -65.19614844
 O         -0.4543938184        0.1526847221       -1.5557874874
 C         -1.2963971446       -0.5575060536       -0.6886445011
 C         -2.5050746611        0.2576701938       -0.1702882348
 C         -2.0402890524        1.4443755890        0.7081552458
 O         -1.2207141665        2.3568670350        0.0274257297
 C         -3.3258246383        0.7887402171       -1.3656932708
 O         -2.5812086056        1.6203384118       -2.2213345147
 C         -3.3452711901       -0.7041337415        0.6603873862
 Br        -4.9412095908        0.1110392045        1.4229205162
 H         -1.0306082838        0.6298809111       -2.1855427893
 H         -0.6778107526       -0.8781782525        0.1558575953
 H         -1.6748974301       -1.4597868811       -1.1948735555
 H         -1.5308417261        1.0540716795        1.5983689919
 H         -2.9191866061        2.0103903543        1.0352840596
 H         -0.3186676853        1.9960064057        0.0134658228
 H         -4.2054758953        1.3280824752       -0.9882323507
 H         -3.6749071957       -0.0471021587       -1.9818833909
 H         -2.1981505779        2.3265383047       -1.6694462793
 H         -2.7758266502       -1.0879367206        1.5067045912
 H         -3.7015974530       -1.5372701533        0.0548374208
 O          3.4349539020        2.7682019770       -0.4404601444
 C          4.2181676158        1.6375418031       -0.1671131969
 C          3.4212008189        0.3117075506       -0.2383965576
 C          2.2648284960        0.3417584985        0.7824129109
 O          1.3729258319        1.4114334908        0.6192715798
 C          2.9014174857        0.1077033181       -1.6821003077
 O          2.0898534066        1.1582042838       -2.1370337099
 C          4.3904123077       -0.8073043296        0.1195188018
 Br         3.5625433965       -2.5694465917        0.1200304744
 H          2.9912532324        2.6055393792       -1.2955153742
 H          4.6199647420        1.7802046387        0.8417867790
 H          5.0653362271        1.5804745715       -0.8669838330
 H          2.6978428079        0.3668609493        1.7959347485
 H          1.6677693101       -0.5707021796        0.6891983543
 H          1.9075171885        2.2195147428        0.5056316473
 H          2.3636284454       -0.8449184241       -1.7441731725
 H          3.7618211399        0.0630851441       -2.3606491048
 H          1.1871118271        0.9939013370       -1.8148327302
 H          4.7970842007       -0.6715217999        1.1215714614
 H          5.2076334207       -0.8630643321       -0.5992689771
