  40
        -65.19542107
 O         -1.1511761492        0.4127745670       -1.0938151675
 C         -2.0568055965       -0.1103161120       -0.1599594454
 C         -3.0292428343        0.9399485059        0.4125398784
 C         -2.2577183627        2.0741398979        1.1429314443
 O         -1.4930365595        2.8866835753        0.2990791527
 C         -3.8808086448        1.5446187380       -0.7258433601
 O         -3.1131662653        2.1578650343       -1.7286004857
 C         -3.9328318646        0.2993811224        1.4587293358
 Br        -5.0158241247       -1.1672408516        0.7705014909
 H         -1.6704180881        0.9281425966       -1.7389660152
 H         -1.4550618903       -0.5376300639        0.6504526468
 H         -2.6396065386       -0.9222504186       -0.6192091468
 H         -1.6354207676        1.6305489194        1.9316068508
 H         -2.9875716005        2.7378630032        1.6211640165
 H         -0.6576494642        2.4314279875        0.0807899184
 H         -4.5924160420        2.2638020308       -0.2929570212
 H         -4.4518341925        0.7558123757       -1.2254726479
 H         -2.5665243451        2.8367051077       -1.2912666377
 H         -4.6415243794        1.0246768450        1.8578853049
 H         -3.3478802029       -0.1228072322        2.2758533089
 O          1.0800699482        1.8352072807       -0.0583963007
 C          1.9436202342        1.0816903559        0.7442559414
 C          2.9210277666        0.1859336505       -0.0519754767
 C          2.1585077227       -0.8575380338       -0.9055849376
 O          1.4146471628       -0.3038547545       -1.9559850104
 C          3.7979573536        1.0678167866       -0.9683570612
 O          3.0478102652        1.8375389900       -1.8741989553
 C          3.7851217409       -0.5248421789        0.9828880239
 Br         5.1582914027       -1.6707931649        0.2109772105
 H          1.6223399244        2.2337395483       -0.7676085918
 H          1.3102253468        0.4585079563        1.3856365195
 H          2.5322348173        1.7497140680        1.3940445458
 H          1.5210015441       -1.4617904188       -0.2461844592
 H          2.8892820288       -1.5239795184       -1.3769305736
 H          0.5663220642        0.0311340230       -1.6112416489
 H          4.5066331548        0.4291985993       -1.5125239554
 H          4.3708878521        1.7793329481       -0.3637703560
 H          2.5121483484        1.2085063602       -2.3941718405
 H          3.1804796781       -1.1744997405        1.6157883910
 H          4.3186706298        0.1933725088        1.6053818043
