  40
        -65.19598785
 O         -0.4627302699       -0.0997073255       -1.4748476822
 C         -1.3223556026       -0.6707307580       -0.5255136408
 C         -2.5209533869        0.2253158049       -0.1315397355
 C         -2.0422360758        1.5014265281        0.6018361458
 O         -1.1733278339        2.2916334459       -0.1653176401
 C         -3.3148953411        0.6217888746       -1.3950814658
 O         -2.5429818264        1.3301004410       -2.3335206880
 C         -3.3923664482       -0.6105642971        0.7973818592
 Br        -4.9736776686        0.3282079564        1.4383953476
 H         -1.0262785896        0.2998210197       -2.1670758411
 H         -0.7142604911       -0.8819317521        0.3599008116
 H         -1.7122783985       -1.6273996122       -0.9078250405
 H         -1.5696424174        1.2147325366        1.5497111367
 H         -2.9098912885        2.1311252236        0.8261722710
 H         -0.2858058214        1.9016844551       -0.1017919941
 H         -4.1888785605        1.2184331667       -1.0992610358
 H         -3.6721962485       -0.2760962151       -1.9112196642
 H         -2.1468471341        2.0873659803       -1.8655547938
 H         -2.8400807139       -0.9042736348        1.6898541489
 H         -3.7642854242       -1.5010954806        0.2909850297
 O          3.3074724759        2.7533219206       -0.4064392171
 C          4.1403570574        1.6528048668       -0.1573579774
 C          3.3996176055        0.2954110455       -0.2382219817
 C          2.2577114325        0.2579871431        0.7987180187
 O          1.3313671092        1.3053232636        0.6849729206
 C          2.8671751765        0.0916290464       -1.6770504713
 O          1.9858422372        1.1018223634       -2.0922091338
 C          4.4217675458       -0.7858041901        0.0876313225
 Br         3.6690524740       -2.5814095862        0.0849722376
 H          2.8530242025        2.5812717815       -1.2536745877
 H          4.5477735122        1.7991725918        0.8488169017
 H          4.9810777838        1.6408061014       -0.8672261209
 H          2.7044997790        0.2638404951        1.8064596434
 H          1.6869479251       -0.6686242299        0.6833638457
 H          1.8397004474        2.1317729594        0.5812528306
 H          2.3852066430       -0.8894914774       -1.7513095940
 H          3.7156879031        0.1132530316       -2.3714900379
 H          1.1012913886        0.8743408965       -1.7580547655
 H          4.8428334623       -0.6432396639        1.0827963811
 H          5.2257536279       -0.7994039779       -0.6479097990
