  40
        -65.19565285
 O         -2.5988111084        3.5419426294        0.9587405564
 C         -3.6173155554        2.6169964730        0.6842481151
 C         -3.0971175448        1.1698919582        0.5030765167
 C         -2.0987577268        1.1124796868       -0.6719386274
 O         -1.0219309883        2.0067132119       -0.5679986839
 C         -2.4460377746        0.6946379150        1.8241446386
 O         -1.3691043113        1.4972482624        2.2320987947
 C         -4.3093574373        0.3027045146        0.1880913998
 Br        -3.8583718219       -1.5641640994       -0.1345745505
 H         -2.0841476939        3.1849197013        1.7083286218
 H         -4.1023811786        2.9602501226       -0.2359586194
 H         -4.3679924745        2.6256231351        1.4887272523
 H         -2.6516782629        1.3047521801       -1.6060129661
 H         -1.6605134602        0.1116794938       -0.7338387351
 H         -1.3869364717        2.8687402157       -0.2920976856
 H         -2.1274150482       -0.3482001124        1.7184867546
 H         -3.1949188417        0.7475707972        2.6235621395
 H         -0.5764323152        1.1874789579        1.7607068489
 H         -4.8147966488        0.6454561199       -0.7147264535
 H         -5.0144115855        0.2992897630        1.0190484006
 O          1.6561752175        2.5657056375        0.0622307655
 C          2.3117590152        1.7900543754       -0.9023785013
 C          2.7150901929        0.3796739084       -0.3937471139
 C          3.6974711009        0.5260648969        0.7887427258
 O          3.1427181325        1.1921189789        1.8943507642
 C          1.4737970205       -0.4263263817        0.0413208960
 O          0.7995228132        0.1121035159        1.1504021092
 C          3.3989700777       -0.3146321237       -1.5648414819
 Br         4.0833204815       -2.0883818383       -1.1381376150
 H          0.7279096646        2.2763628922        0.0903043692
 H          3.2193352376        2.3396236534       -1.1771662018
 H          1.6895598154        1.6838311358       -1.7995589626
 H          4.5988374040        1.0517558564        0.4379047552
 H          3.9986535489       -0.4605803172        1.1545326260
 H          2.7737460064        2.0339751730        1.5721432380
 H          1.7827653328       -1.4575794440        0.2662117337
 H          0.7483208041       -0.4566613862       -0.7784144920
 H          1.4769393280        0.3216946745        1.8210529076
 H          4.2607151885        0.2582115527       -1.9069411974
 H          2.7050613425       -0.4563421380       -2.3931222436
