  40
        -65.19753071
 O         -0.9302020424        2.3216135346        1.8292955218
 C         -1.5513599944        1.0685189663        1.8930348514
 C         -2.3322140379        0.6738564642        0.6086487698
 C         -3.3352971462        1.7934333071        0.2525663449
 O         -2.7147914010        3.0127262291       -0.0651195481
 C         -1.3732436315        0.4332886526       -0.5735306723
 O         -0.5951474113        1.5542062852       -0.9027912050
 C         -3.0742506703       -0.6146275401        0.9415426314
 Br        -4.1600264615       -1.2939209788       -0.5260900379
 H         -0.0960640882        2.2480945501        1.3279085266
 H         -2.2625065978        1.1279998169        2.7253014062
 H         -0.8254274600        0.2783902337        2.1255071925
 H         -4.0337937972        1.9254353196        1.0925472427
 H         -3.9133648217        1.5113315694       -0.6328467883
 H         -2.1618543422        3.2550910862        0.7009195279
 H         -1.9596356276        0.1168265635       -1.4485136649
 H         -0.6742298762       -0.3726642305       -0.3226326813
 H         -1.2042650339        2.3118219706       -0.9791954164
 H         -3.7645639397       -0.4643559328        1.7712863408
 H         -2.3766559938       -1.4148998709        1.1888298536
 O          3.8642003951        2.7490660556       -0.6166740271
 C          4.3642164156        1.4628021956       -0.3716526925
 C          3.2472864550        0.4023808309       -0.2125886221
 C          2.3239217624        0.7985188470        0.9576085671
 O          1.6701468084        2.0254620335        0.7930100801
 C          2.4730821661        0.2787958232       -1.5489284536
 O          1.9555250346        1.4925473467       -2.0219694745
 C          3.9246115722       -0.9237085666        0.1067665017
 Br         2.6588234829       -2.3804495605        0.3641226735
 H          3.2756766193        2.6752911130       -1.3942854895
 H          4.9506541730        1.5314129384        0.5508120262
 H          5.0384893794        1.1511937578       -1.1834425631
 H          2.9241443613        0.8095272145        1.8826223123
 H          1.5360614547        0.0477928108        1.0742060299
 H          2.3377268254        2.6819268105        0.5247995567
 H          1.6757974492       -0.4653677341       -1.4400925742
 H          3.1692105107       -0.0793024830       -2.3175331719
 H          1.1013469064        1.6569990410       -1.5796623218
 H          4.4968208657       -0.8626951429        1.0324012863
 H          4.5791143830       -1.2388149982       -0.7054518338
