%nprocshared=8
%mem=20GB
# opt=(calcall,tight,maxstep=3) wb97xd scf=(qc,verytight) def2svpp
int=grid=ultrafine

dimer

0 1
 Br                 1.66653185   -1.84114578    0.12803102
 C                  2.25526285   -0.00044778   -0.00243698
 Br                 4.06572785    0.04914522   -0.69439198
 Br                 1.08273485    0.97744022   -1.19186598
 Br                 2.22158085    0.81495222    1.75760702
 Br                -4.35446400   -0.37347400    0.59004100
 C                 -2.54473500   -0.00188700    0.00187500
 Br                -1.95582300   -1.40671500   -1.19445000
 Br                -2.51308400    1.69807600   -0.93235800
 Br                -1.37104300    0.08176000    1.53856800

