%nprocshared=8
%mem=20GB
# opt=(calcall,tight,maxstep=3) wb97xd scf=(qc,verytight) def2svpp
int=grid=ultrafine

dimer

0 1
 Br                 1.96653171   -1.84105583    0.12776152
 C                  2.55526271   -0.00035783   -0.00270648
 Br                 4.36572771    0.04923517   -0.69466148
 Br                 1.38273471    0.97753017   -1.19213548
 Br                 2.52158071    0.81504217    1.75733752
 Br                -4.35446400   -0.37347400    0.59004100
 C                 -2.54473500   -0.00188700    0.00187500
 Br                -1.95582300   -1.40671500   -1.19445000
 Br                -2.51308400    1.69807600   -0.93235800
 Br                -1.37104300    0.08176000    1.53856800

