%nprocshared=8
%mem=20GB
# opt=(calcall,tight,maxstep=3) wb97xd scf=(qc,verytight) def2svpp
int=grid=ultrafine

dimer

0 1
 Br                 1.86653176   -1.84108582    0.12785136
 C                  2.45526276   -0.00038782   -0.00261664
 Br                 4.26572776    0.04920518   -0.69457164
 Br                 1.28273476    0.97750018   -1.19204564
 Br                 2.42158076    0.81501218    1.75742736
 Br                -4.35446400   -0.37347400    0.59004100
 C                 -2.54473500   -0.00188700    0.00187500
 Br                -1.95582300   -1.40671500   -1.19445000
 Br                -2.51308400    1.69807600   -0.93235800
 Br                -1.37104300    0.08176000    1.53856800

