  10
  -36.866903929999999       0.24911895161673217      !md1
 Br         1.7690010221       -1.6702971872        0.7545206765
 C          2.4092583924       -0.0000569871        0.0050627288
 Br         4.1531635497       -0.2769165161       -0.7940397456
 Br         1.1795051332        0.6077427584       -1.3575474578
 Br         2.5325344354        1.3393471679        1.4066299996
 Br        -4.1530692677       -0.3026252467        0.7848513084
 C         -2.4092668391        0.0001215633       -0.0050576814
 Br        -1.7689823758       -1.6449705265       -0.8081928724
 Br        -2.5329295401        1.3842297228       -1.3624569220
 Br        -1.1792216871        0.5634801203        1.3762342546
  10
  -36.866903880000002       0.24910577114672952      !mtd3
 Br         1.4220514051        2.1085898015       -0.1164738319
 C          2.3710341987        0.4174081748       -0.0910390604
 Br         1.3207191284       -0.9245395926       -1.0045479030
 Br         4.0714256803        0.6174690672       -0.9993285768
 Br         2.6676991867       -0.1368505579        1.7469913480
 Br        -4.1703773196       -0.1043399704        0.7398137785
 C         -2.3710849303       -0.4175612547        0.0909515546
 Br        -2.2028504582       -2.2525646907       -0.5239522316
 Br        -1.9909391917        0.7974880487       -1.3721034864
 Br        -1.1177208051       -0.1052290951        1.5296140570
  10
  -36.866535120000002       0.16862168582913614      !mtd12
 Br         1.7407143317       -1.3995042764        1.0855325758
 C          2.4921291845        0.0612907098        0.0521748840
 Br         3.8326336259       -0.6290661976       -1.1709058719
 Br         1.0896862861        0.9157757214       -0.9613904916
 Br         3.2936869249        1.3606456943        1.2528168727
 Br        -4.3032818353       -0.5367633978        0.4200924614
 C         -2.4876052252       -0.0609596673       -0.0532502685
 Br        -1.5995144161       -1.6050962061       -0.8120419260
 Br        -2.5079700573        1.3834205184       -1.3519885647
 Br        -1.5466348920        0.5105383823        1.5380465939
  10
  -36.866526589999999       0.16710648738965103      !md1
 Br         1.5759591070       -1.6222475765        0.7618745855
 C          2.4910830356       -0.0688651793        0.0565920329
 Br         4.3095918206       -0.5518164531       -0.3976235926
 Br         1.5834719768        0.5521307675       -1.5356827150
 Br         2.5033860082        1.3423368406        1.3914976617
 Br        -3.7766285047       -0.7050605852        1.1811803239
 C         -2.4958157348        0.0693633900       -0.0557389062
 Br        -1.7416987267       -1.3287053419       -1.1709113950
 Br        -3.3704582583        1.3929043197       -1.1761105293
 Br        -1.0829120134        0.9203831389        0.9456474205
  10
  -36.866520580000000       0.16604710401775113      !md2
 Br         2.5280945148       -1.4897522883        1.1699403351
 C          2.4932952972        0.0821842304        0.0286594892
 Br         4.3042632344        0.6452107081       -0.3594484393
 Br         1.5897983879       -0.3395232093       -1.6297633109
 Br         1.5595964390        1.5187894078        0.9289533825
 Br        -3.7009736105        0.5777674943        1.3454770833
 C         -2.4983858522       -0.0828195951       -0.0280284461
 Br        -3.4541595018       -1.2669781007       -1.2353740365
 Br        -1.7677209577        1.4128215117       -1.0262479609
 Br        -1.0581333046       -1.0582400169        0.8063680897
