%chk=13.chk
%nprocshared=4
%mem=8000mb
#T wB97XD/def2svpp opt=tight freq int(grid=ultrafine) scf=(verytight,qc) Volume=tight

Monomer

0 1
O       -1.595663   -0.136885    1.345371 
C       -0.190337    0.079421    1.263139 
C        0.238734    0.006465   -0.204834 
C       -0.652479    0.929877   -1.063614 
O       -0.881497    2.186123   -0.478539 
C        1.693454    0.497159   -0.298837 
O        2.571470   -0.100063    0.624663 
C        0.120301   -1.435421   -0.731159 
O       -1.177481   -1.956159   -0.686705 
H       -1.858000   -0.189281    2.273729 
H        0.360612   -0.678330    1.848999 
H        0.068661    1.073182    1.673517 
H       -1.599626    0.409413   -1.288537 
H       -0.148064    1.116630   -2.028191 
H       -1.560071    2.069496    0.200822 
H        1.709230    1.577974   -0.084555 
H        2.052633    0.364398   -1.340852 
H        2.731180   -1.016553    0.365503 
H        0.823083   -2.081895   -0.157677 
H        0.448324   -1.464277   -1.787395 
H       -1.620633   -1.589898    0.098161 


