  18
        -22.79829229
 C         -2.3673751375       -0.8221584597       -0.7488084731
 C         -2.2840294783        0.2986441756        0.2822559424
 O         -1.0356766260        0.9425901009        0.2788485277
 H         -3.3509633415       -1.2836156870       -0.7236063358
 H         -1.6159310674       -1.5801921452       -0.5337680625
 H         -2.1877430404       -0.4274821788       -1.7461770959
 H         -2.4986402703       -0.1077334126        1.2834235208
 H         -3.0228354036        1.0745982388        0.0630709193
 H         -0.3505435526        0.2556042994        0.3613917037
 C          2.4311081353        0.9961213260       -0.1758901069
 C          2.0640431407       -0.4701923428       -0.3621258592
 O          1.1177043726       -0.9151381852        0.5923614540
 H          3.1097270319        1.3101075453       -0.9636887641
 H          2.9212301302        1.1481836251        0.7849003462
 H          1.5355948871        1.6119744760       -0.2126302873
 H          2.9639850756       -1.0985811470       -0.3128537105
 H          1.5873258291       -0.6238914018       -1.3324577537
 H          1.4687343274       -0.7435194210        1.4741112011
