  18
        -22.79818436
 C         -2.5746084620       -0.9353327973        0.1842584723
 C         -2.2371131206        0.4405079034       -0.3819616897
 O         -1.0033272762        0.9258077120        0.0813885963
 H         -2.5925821993       -0.8982430020        1.2711539238
 H         -1.8242669710       -1.6597590458       -0.1283267144
 H         -3.5479797021       -1.2600702518       -0.1733019433
 H         -2.9844648453        1.1747554873       -0.0685140373
 H         -2.2395388850        0.3947207151       -1.4821598463
 H         -0.3298575958        0.2466518218       -0.1017179209
 C          2.4355133871        0.9099690029        0.5631763374
 C          2.2416745026       -0.2538294119       -0.3999601842
 O          1.0860084570       -1.0146807243       -0.1010836573
 H          3.2914449787        1.5044505299        0.2570852083
 H          2.6111913426        0.5438207763        1.5738658901
 H          1.5494757744        1.5403885856        0.5698987418
 H          3.1263323106       -0.9054951406       -0.3941519520
 H          2.0892345951        0.1128654729       -1.4171859049
 H          1.1417492686       -1.3056803071        0.8169712704
