  18
        -22.79835345
 C         -2.3794954014       -0.8847838409       -0.5324316088
 C         -2.0161579228        0.5697887259       -0.2646346719
 O         -1.1410634483        0.7134177152        0.8391130882
 H         -2.9991623295       -0.9531058707       -1.4218808781
 H         -2.9325608400       -1.3014427936        0.3083424604
 H         -1.4770530606       -1.4727364389       -0.6824136648
 H         -2.9239202663        1.1660174899       -0.0983232876
 H         -1.4767876027        0.9910850079       -1.1155946372
 H         -1.5496025253        0.3012196705        1.6093562323
 C          2.3005830511        0.9605240883       -0.5599400879
 C          2.2770313515       -0.3447147533        0.2289483737
 O          1.0394737701       -1.0037406954        0.1434327357
 H          1.5474994321        1.6430725645       -0.1693943343
 H          2.0859924157        0.7681879071       -1.6087009735
 H          3.2772063410        1.4304443749       -0.4799856230
 H          2.5264476931       -0.1407790247        1.2822507753
 H          3.0178471003       -1.0441738975       -0.1684591296
 H          0.3483236104       -0.3639633195        0.3907807587
