  18
        -22.79838275
 C         -2.1308042263       -0.6941501433        0.8224823450
 C         -1.9222626891        0.6501244045        0.1373770898
 O         -1.2073828238        0.5327393233       -1.0789867504
 H         -2.6063247319       -0.5470651694        1.7879750118
 H         -1.1742064369       -1.1904833887        0.9681477719
 H         -2.7668773571       -1.3375237036        0.2163805819
 H         -1.3167190034        1.3078092707        0.7647921224
 H         -2.8887594103        1.1397808212       -0.0452044278
 H         -1.6794213770       -0.0821146987       -1.6526961055
 C          2.0349371965        0.9024542093        0.7697312598
 C          2.2463625418       -0.3059729940       -0.1373434982
 O          1.0668830989       -1.0410465639       -0.3409329421
 H          2.9779839728        1.4156038553        0.9375522329
 H          1.6308621453        0.5843971313        1.7283660835
 H          1.3350832744        1.5964741239        0.3073136506
 H          2.9572537479       -1.0019673884        0.3167903909
 H          2.6589863666        0.0273347912       -1.1021837545
 H          0.3826129262       -0.4269116466       -0.6620167194
