%nprocshared=4
%mem=8000mb
#T wB97XD/def2svpp opt=tight freq int(grid=ultrafine) scf=(verytight,qc)

dimer

0 1
 O          5.2979143062        0.8003012496       -0.3399085188
 C          4.1551211902        0.6343382421       -1.1443309255
 C          3.0841935513       -0.2792212891       -0.5113132537
 C          1.8981296547       -0.3934192223       -1.4875371723
 O          0.9058530409       -1.2936449490       -1.0690463076
 C          3.6549851331       -1.7008019030       -0.2839345610
 O          4.8112013441       -1.7453682969        0.5146299958
 C          2.6371634213        0.2886043534        0.8497686705
 O          3.6525828431        0.4474249739        1.7484482768
 Cl         1.7953490745        1.8933835351        0.5901416568
 H          5.6766839136       -0.0824874656       -0.1867849131
 H          4.4325055544        0.2254269990       -2.1250046688
 H          3.7413766207        1.6350798806       -1.2939346469
 H          2.2632297195       -0.7780713457       -2.4436462315
 H          1.4740086777        0.6037476715       -1.6545647654
 H          0.5143493087       -0.9691537933       -0.2297611841
 H          3.9469793013       -2.1194245476       -1.2507878899
 H          2.8643217942       -2.3347196936        0.1367265222
 H          4.5868926980       -1.4179312730        1.3982968613
 H          1.8754817076       -0.3399565165        1.3222935856
 H          4.3914113408        0.9130068612        1.2993882833
 O         -0.5826128733       -0.3163602392        0.9692369393
 C         -1.7711037647       -1.0506869915        1.1526441280
 C         -2.9182866970       -0.7360132962        0.1675760907
 C         -2.6081491631       -1.1455036959       -1.2915115040
 O         -1.5853440067       -0.4017086296       -1.9081761684
 C         -4.1483552071       -1.5493606312        0.6399695160
 O         -4.6808107205       -1.0914640851        1.8514202340
 C         -3.1975340705        0.7741278133        0.2542949934
 O         -2.1887992464        1.5558916714       -0.2250884706
 Cl        -4.7574562516        1.1526246279       -0.6309071290
 H         -0.8026305217        0.6242270586        0.8575513199
 H         -2.1560166309       -0.8917857949        2.1687554431
 H         -1.4894168154       -2.1024276840        1.0517386239
 H         -3.5084335156       -0.9692063065       -1.8893199011
 H         -2.3853874569       -2.2174312811       -1.3161592823
 H         -0.7160635676       -0.8048404084       -1.7142388453
 H         -3.8369168840       -2.5823546349        0.8166166670
 H         -4.9082609481       -1.5485429484       -0.1483196520
 H         -5.2268259485       -0.3159888000        1.6761318239
 H         -3.3928913026        1.0796572496        1.2880889110
 H         -1.8908874095        1.1770593686       -1.0842151468

