%nprocshared=4
%mem=8000mb
#T wB97XD/def2svpp opt=tight freq int(grid=ultrafine) scf=(verytight,qc)

dimer

0 1
 O         -0.8551430062       -1.3166003079       -0.8069052999
 C         -2.1091030351       -1.4109575055       -0.1819110157
 C         -2.7031108762       -0.0356074941        0.1900015394
 C         -2.9507382843        0.8055617151       -1.0859578440
 O         -1.8161156767        0.9474750337       -1.9065930857
 C         -4.0404834107       -0.2389453103        0.9105714179
 F         -4.9246506587       -0.9194559349        0.1137029841
 C         -1.7448123615        0.6951822535        1.1356343126
 F         -2.2953086421        1.8829184877        1.5592116603
 H         -0.9738755730       -0.6934334245       -1.5493673407
 H         -1.9625479611       -2.0122559652        0.7207340439
 H         -2.8227863470       -1.9320724573       -0.8331980300
 H         -3.3462356278        1.7855161549       -0.7924592174
 H         -3.7000969298        0.2989913543       -1.7000089915
 H         -1.1733305438        1.5313530260       -1.4798456233
 H         -4.5040586781        0.7218764670        1.1534896268
 H         -3.9123130337       -0.8349732956        1.8200203690
 H         -0.8034083576        0.9417918453        0.6354302860
 H         -1.5514519067        0.1007778469        2.0343905078
 O          1.8166126522       -0.9417439667       -1.9094156031
 C          2.9508287129       -0.8029945948       -1.0876994769
 C          2.7031081786        0.0351787747        0.1902093924
 C          2.1099296367        1.4117632989       -0.1784948420
 O          0.8559395415        1.3197155003       -0.8037582225
 C          1.7440516078       -0.6974409558        1.1336350626
 F          2.2934515363       -1.8868102461        1.5540646480
 C          4.0402574494        0.2359284926        0.9119115768
 F          4.9254622165        0.9172169521        0.1168791802
 H          1.1731229353       -1.5262177729       -1.4845557670
 H          3.7010823710       -0.2955908399       -1.6999567586
 H          3.3451826444       -1.7840729795       -0.7964215116
 H          2.8240390249        1.9339607715       -0.8284587619
 H          1.9636880701        2.0109745414        0.7255943990
 H          0.9745094434        0.6989723455       -1.5482461908
 H          0.8026017388       -0.9418830889        0.6324675332
 H          1.5509904563       -0.1053444936        2.0339849332
 H          4.5028447578       -0.7257741651        1.1532395583
 H          3.9120809508        0.8303220594        1.8224349138

