  58
        -58.97310975
 C          1.4005503630       -2.0551498174       -1.6589693649
 C          2.2027403432       -0.7856707058       -1.3818653579
 C          2.8452825695       -0.6873481468        0.0207409261
 C          1.8164613833       -1.0941487891        1.0838972672
 C          4.0104916865       -1.6835203030        0.0949655439
 C          3.3509424242        0.7764995606        0.2785905195
 C          2.1837361585        1.7265017112        0.5820612367
 C          4.3136527874        0.8366251214        1.4736914295
 C          4.1033762969        1.3412042238       -0.9352087511
 H          2.0033098000       -2.9497375752       -1.5254141601
 H          1.0537064880       -2.0400193328       -2.6907739319
 H          0.5289308739       -2.1276367863       -1.0152946502
 H          1.5346331057        0.0636497236       -1.5323002209
 H          2.9936230337       -0.7213331307       -2.1303556524
 H          1.6356147865       -2.1650912858        1.0368517695
 H          0.8725624712       -0.5788157050        0.9314986822
 H          2.1752711519       -0.8666775897        2.0841936965
 H          3.6782482122       -2.6689407202       -0.2213759224
 H          4.3825968554       -1.7743566334        1.1113006193
 H          4.8317967936       -1.3859521222       -0.5516935685
 H          1.7457615113        1.5164477640        1.5536432132
 H          1.4054114311        1.6579506594       -0.1719303203
 H          2.5454547515        2.7530600683        0.5941379300
 H          5.2645806858        0.3671362252        1.2389523132
 H          3.8958051528        0.3553181968        2.3538052981
 H          4.5096207577        1.8767907942        1.7271998309
 H          3.4302186006        1.5410757991       -1.7639266198
 H          4.8817048086        0.6631346746       -1.2749325427
 H          4.5792756475        2.2805357043       -0.6599351377
 C         -1.3181516511        2.1171009191       -1.3942743710
 C         -1.7776934746        0.7185244721       -0.9881328243
 C         -2.7738263787        0.6568113676        0.1924420332
 C         -2.0095988230        0.9577619881        1.4895550461
 C         -3.8418952838        1.7452615202        0.0202198188
 C         -3.4405254535       -0.7626738736        0.2601411212
 C         -2.4071819673       -1.8858904581        0.0909828764
 C         -4.1391986794       -0.9912955767        1.6084876415
 C         -4.4983250976       -0.9376026479       -0.8389615251
 H         -2.1346061641        2.6985111507       -1.8131279118
 H         -0.5451650005        2.0340425636       -2.1570253919
 H         -0.9007147303        2.6658502308       -0.5535662931
 H         -0.8944383207        0.1359428332       -0.7237156751
 H         -2.2263520746        0.2546868128       -1.8677233242
 H         -1.4113239961        1.8575935071        1.3699133457
 H         -1.3387433067        0.1454741945        1.7568810733
 H         -2.6944931974        1.1259223923        2.3156465630
 H         -4.6522577974        1.6139505295        0.7321695343
 H         -4.2592445927        1.7347857342       -0.9826596632
 H         -3.4056393353        2.7245942172        0.1990565400
 H         -1.5736844129       -1.7698212180        0.7787640323
 H         -2.0220239993       -1.9221219769       -0.9240625012
 H         -2.8776118943       -2.8445344051        0.3015520635
 H         -4.7239659838       -1.9079807530        1.5612058863
 H         -4.8176915256       -0.1790441376        1.8545763774
 H         -3.4182914335       -1.0979671977        2.4138715555
 H         -4.1060216570       -0.6846276273       -1.8203762886
 H         -5.3721878797       -0.3220086353       -0.6465371313
 H         -4.8219835897       -1.9762565202       -0.8689886895
