  58
        -58.97291919
 C          1.2454218241       -2.6518296322        0.4530694259
 C          1.8389088240       -1.4496772198       -0.2784634816
 C          2.9518984094       -0.6861078062        0.4749416194
 C          2.5375353495       -0.4866861506        1.9391485292
 C          4.2232182478       -1.5460400237        0.4640857009
 C          3.2140636871        0.6990784055       -0.2158641741
 C          2.1032129489        1.7066757330        0.1119857389
 C          4.5426556544        1.3149245067        0.2467820693
 C          3.2854812472        0.5688738857       -1.7444360987
 H          2.0114458420       -3.3711486824        0.7305980667
 H          0.5386765313       -3.1585883168       -0.2025076996
 H          0.7135932322       -2.3519962449        1.3521941773
 H          1.0222538897       -0.7617994887       -0.5034160488
 H          2.2424937277       -1.8026510626       -1.2285308986
 H          2.5772439039       -1.4350019457        2.4688683145
 H          1.5272914230       -0.0948445888        2.0152151216
 H          3.2121715228        0.1981605129        2.4457756036
 H          3.9949141522       -2.5517886304        0.8077309388
 H          4.9778281239       -1.1361192621        1.1289936039
 H          4.6440702240       -1.6238452554       -0.5350023001
 H          2.1497658566        2.0201436911        1.1509643157
 H          1.1171606984        1.2955378858       -0.0817733125
 H          2.2209394247        2.5925421477       -0.5091582187
 H          4.6114375743        2.3388592369       -0.1157137422
 H          5.3918704188        0.7647955175       -0.1481709135
 H          4.6193793614        1.3421820922        1.3303952794
 H          2.3113950545        0.3507366461       -2.1728110950
 H          3.9805940269       -0.2093484333       -2.0480546165
 H          3.6326914529        1.5081251036       -2.1707984228
 C         -1.6432697823        2.8918820847       -0.3680089142
 C         -2.0099810280        1.4840062168       -0.8320400222
 C         -2.7295696699        0.5974849489        0.2100846901
 C         -1.7151933569        0.1846342241        1.2854822329
 C         -3.8315805476        1.4126317699        0.9000229068
 C         -3.3368195304       -0.6695486374       -0.4904812968
 C         -2.3426791513       -1.3125694786       -1.4685314097
 C         -3.7207582520       -1.7472697914        0.5341191251
 C         -4.6043532075       -0.3183079262       -1.2825644626
 H         -2.5289861177        3.4939124842       -0.1862199398
 H         -1.0581753097        3.3827689441       -1.1435698998
 H         -1.0432531859        2.8760997179        0.5381305156
 H         -1.0916192452        0.9814094492       -1.1397582123
 H         -2.6402460615        1.5852662693       -1.7168181105
 H         -1.1818831271        1.0591618499        1.6503451252
 H         -0.9835442845       -0.5157464623        0.8932772440
 H         -2.2125533885       -0.2736512336        2.1355257853
 H         -3.3868832939        2.1501005331        1.5632610420
 H         -4.4706869120        0.7736967965        1.5035420908
 H         -4.4505563141        1.9339880737        0.1753606896
 H         -2.7368289482       -2.2691827104       -1.8064284293
 H         -1.3819413091       -1.4995662483       -0.9973024329
 H         -2.1857923187       -0.6909626580       -2.3454459705
 H         -4.3417448146       -1.3450217187        1.3299392135
 H         -2.8395828834       -2.2027722312        0.9766677697
 H         -4.2873329743       -2.5324567740        0.0371617609
 H         -4.4393050079        0.5168246061       -1.9581535260
 H         -5.4275768831       -0.0693679709       -0.6192523822
 H         -4.9063429799       -1.1749652000       -1.8820907452
