  58
        -58.97307274
 C          1.3503015887        2.3743399823       -0.4048898393
 C          1.9542962046        1.2327997198        0.4096634856
 C          2.9719892294        0.3403481508       -0.3370902104
 C          2.4287181021       -0.0018212402       -1.7307969296
 C          4.2697731760        1.1377054037       -0.5272580744
 C          3.2433585885       -0.9696946282        0.4843192111
 C          2.0709860090       -1.9546451112        0.3725445931
 C          4.5007777517       -1.6957385051       -0.0160760616
 C          3.4568191883       -0.6731498824        1.9759287525
 H          2.1181404778        3.0189894216       -0.8248439917
 H          0.7237108172        2.9850338396        0.2429069328
 H          0.7305639893        2.0006479867       -1.2142672677
 H          1.1307649686        0.6147293328        0.7710664193
 H          2.4482351110        1.6661322749        1.2806133506
 H          2.4499318538        0.8808903978       -2.3646137389
 H          1.4050920619       -0.3605465859       -1.6782947149
 H          3.0367410206       -0.7636311317       -2.2113984784
 H          4.0491151822        2.1091231035       -0.9622813952
 H          4.9487620718        0.6236795994       -1.2013680282
 H          4.7781978634        1.3052429473        0.4186354521
 H          2.0018431782       -2.3750659389       -0.6265251511
 H          1.1239956056       -1.4815654586        0.6166358368
 H          2.2195360501       -2.7759750746        1.0709890222
 H          4.5650931076       -2.6740776981        0.4564205273
 H          5.4018422280       -1.1446072601        0.2370072058
 H          4.4774596558       -1.8492505338       -1.0915570079
 H          2.5335369743       -0.3633985503        2.4570889098
 H          4.2047106964        0.1005168653        2.1275978351
 H          3.8058410561       -1.5742120892        2.4767073379
 C         -1.6631275667        0.3815527042       -2.6019937901
 C         -1.8075924229       -0.1883374676       -1.1926787127
 C         -2.9352109170        0.4259776243       -0.3321153855
 C         -2.5054830350        1.8360858649        0.0956426876
 C         -4.2089149586        0.5640812127       -1.1767089745
 C         -3.2029149756       -0.4746667766        0.9254074437
 C         -1.8948869343       -0.9132800748        1.5999373700
 C         -4.0292444784        0.2699867976        1.9842810191
 C         -3.9788237481       -1.7453525751        0.5501761024
 H         -2.5251694089        0.1434110204       -3.2186029660
 H         -0.7842928933       -0.0515926451       -3.0770623380
 H         -1.5358380019        1.4612152669       -2.5894191384
 H         -0.8611394550       -0.0399247184       -0.6718065479
 H         -1.9681932902       -1.2632624515       -1.2896245623
 H         -2.1741058934        2.4033093105       -0.7702774563
 H         -1.6835193657        1.8044206636        0.8056157010
 H         -3.3331612513        2.3772852588        0.5447673399
 H         -4.0841648689        1.3580139824       -1.9085227425
 H         -5.0631523065        0.8228815965       -0.5569216663
 H         -4.4339727924       -0.3571056972       -1.7067399616
 H         -1.2429504716       -0.0659051061        1.7965015740
 H         -1.3578667136       -1.6366355287        0.9926569950
 H         -2.1201134928       -1.3850348631        2.5545417716
 H         -4.9284894417        0.7080371957        1.5598363838
 H         -3.4486670611        1.0571526304        2.4565726283
 H         -4.3361407301       -0.4288794584        2.7601336829
 H         -3.5097696332       -2.2757952645       -0.2742630668
 H         -5.0035694391       -1.5141575799        0.2744717354
 H         -4.0069559750       -2.4188572832        1.4046208373
