  58
        -58.97317560
 C          1.8682557526        1.2280208580       -2.5201445300
 C          1.9229026967        0.9161124166       -1.0265288447
 C          2.9418524238       -0.1649838427       -0.6005576251
 C          2.4148949404       -1.5338947956       -1.0526594202
 C          4.2777698152        0.0779493137       -1.3155108948
 C          3.1367319885       -0.1347046105        0.9569439699
 C          1.7950703439       -0.0338505388        1.6970271314
 C          3.8345452897       -1.4065898397        1.4608578651
 C          3.9962642937        1.0611218720        1.3913852513
 H          2.7935167897        1.6773442401       -2.8695822466
 H          1.0633842143        1.9372218757       -2.7075702487
 H          1.6716258828        0.3369296864       -3.1109826009
 H          0.9296610235        0.5916522119       -0.7177634802
 H          2.1454594199        1.8493982037       -0.5068477583
 H          2.1369833930       -1.4961925310       -2.1027656250
 H          1.5359142451       -1.8305221365       -0.4868126437
 H          3.1754215503       -2.3014476776       -0.9419281840
 H          4.1831354664       -0.1666154555       -2.3703546538
 H          5.0626375365       -0.5509047544       -0.9038992851
 H          4.5879748665        1.1157366446       -1.2319190199
 H          1.0990269651       -0.8009991432        1.3687013265
 H          1.3353050140        0.9402093797        1.5557112042
 H          1.9585041068       -0.1720152730        2.7641851797
 H          4.7483740498       -1.6108686767        0.9096411040
 H          3.1819794548       -2.2715223624        1.3847902005
 H          4.1010606025       -1.2816368439        2.5086596813
 H          3.6226864091        1.9961570464        0.9824412944
 H          5.0297848707        0.9366249260        1.0818076582
 H          3.9807519273        1.1440518942        2.4764935887
 C         -1.4616639715       -1.1820176416       -2.0905925791
 C         -1.8574048432       -0.9881837716       -0.6287445398
 C         -2.7971139303        0.2037574783       -0.3369786819
 C         -1.9984117503        1.5052862099       -0.4919324755
 C         -3.9289378083        0.2276020197       -1.3730472174
 C         -3.3806682432        0.0844479792        1.1154987275
 C         -2.2953199015       -0.2841384975        2.1375791650
 C         -4.0060282860        1.4080884007        1.5797684829
 C         -4.4748930344       -0.9897988146        1.1934167477
 H         -2.3177539661       -1.4511680313       -2.7027750903
 H         -0.7346230677       -1.9891811368       -2.1598282435
 H         -1.0052494839       -0.2877736663       -2.5060154166
 H         -0.9436173925       -0.8541018334       -0.0483672902
 H         -2.3300020702       -1.9122195322       -0.2917194597
 H         -2.6553772932        2.3700669380       -0.4775404246
 H         -1.4735007888        1.5088520235       -1.4437003787
 H         -1.2598414485        1.6171848310        0.2975607699
 H         -3.5397331426        0.5359927143       -2.3399578265
 H         -4.7027532509        0.9366223240       -1.0913380924
 H         -4.3835513994       -0.7527595785       -1.4845673241
 H         -1.4370547431        0.3786077819        2.0688734222
 H         -1.9552846339       -1.3075500634        2.0072866145
 H         -2.7019167953       -0.1959958416        3.1432042848
 H         -4.7133571480        1.7975107711        0.8526100025
 H         -3.2451593456        2.1612458021        1.7627535955
 H         -4.5447578904        1.2459312206        2.5114002546
 H         -4.1401902212       -1.9374175491        0.7798371166
 H         -5.3710242910       -0.6787574417        0.6644649974
 H         -4.7435992650       -1.1588615506        2.2344101071
