  58
        -58.97307475
 C          1.7802398742        1.4034033528       -2.3748101513
 C          1.8708756630        0.9515590354       -0.9192303263
 C          2.9555129585       -0.1043200305       -0.6074502998
 C          2.5019169268       -1.4518515938       -1.1856835755
 C          4.2656835929        0.2840905889       -1.3055386669
 C          3.1687002323       -0.2134256926        0.9441014714
 C          1.8333432450       -0.2640566159        1.7005348757
 C          3.9457448422       -1.4847075262        1.3164316959
 C          3.9632395428        0.9832352653        1.4865357106
 H          0.9307794666        2.0752564823       -2.4874675066
 H          1.6329326492        0.5633701613       -3.0490590550
 H          2.6720337321        1.9416607961       -2.6832352168
 H          0.9016354159        0.5408511254       -0.6380171289
 H          2.0453334489        1.8413200058       -0.3121348643
 H          2.2032573270       -1.3295076261       -2.2235798917
 H          1.6522282566       -1.8537972943       -0.6405487878
 H          3.3080396909       -2.1794146967       -1.1598000889
 H          4.1706289396        0.1392307420       -2.3785941289
 H          5.0902928189       -0.3359571492       -0.9643046273
 H          4.5178996532        1.3247815353       -1.1223091908
 H          1.1784545024       -1.0354703839        1.3044669134
 H          1.3154330185        0.6898036972        1.6586262364
 H          2.0185984055       -0.4946076702        2.7479076649
 H          4.2169711467       -1.4469637408        2.3697796911
 H          4.8633145645       -1.5795855806        0.7422008971
 H          3.3441296250       -2.3753706446        1.1598783519
 H          3.5321831248        1.9298679523        1.1716425747
 H          4.9985908665        0.9491487447        1.1602802419
 H          3.9553960495        0.9609112994        2.5746509565
 C         -1.4234542529       -1.3506229851       -1.9728416772
 C         -1.8341622512       -1.0308776368       -0.5374189162
 C         -2.8213606381        0.1456777819       -0.3650071327
 C         -2.0812336989        1.4557560171       -0.6677025125
 C         -3.9596613254        0.0090143533       -1.3851854583
 C         -3.3896922688        0.1591976112        1.0983461125
 C         -2.2822018631       -0.0474379308        2.1420846683
 C         -4.0715579874        1.4965615359        1.4231335627
 C         -4.4335347216       -0.9475882413        1.3052431053
 H         -2.2668592961       -1.7029827774       -2.5598387940
 H         -0.6717391040       -2.1379025661       -1.9633633372
 H         -0.9913053060       -0.4862191230       -2.4696421329
 H         -0.9296008333       -0.8058280418        0.0287730845
 H         -2.2731575161       -1.9350421278       -0.1124472293
 H         -2.7750295525        2.2886700328       -0.7351234782
 H         -1.5667331962        1.3803729937       -1.6219923391
 H         -1.3399405100        1.6819558768        0.0942070263
 H         -3.5910388157        0.2303181592       -2.3835086139
 H         -4.7635456969        0.7082707044       -1.1716979847
 H         -4.3693288816       -0.9971917918       -1.3874717396
 H         -1.4533405377        0.6381481638        1.9889171343
 H         -1.8995884019       -1.0637718037        2.1230072266
 H         -2.6844507178        0.1365295616        3.1364257295
 H         -4.7992797616        1.7735380935        0.6651986847
 H         -3.3443758955        2.2979565622        1.5163523621
 H         -4.5979223044        1.4126500225        2.3720050807
 H         -4.0575124411       -1.9196010312        0.9973360207
 H         -5.3449791963       -0.7383088277        0.7529192948
 H         -4.6901438187       -1.0109088114        2.3609948418
