  58
        -58.97305124
 C          1.6432383862       -1.0716509846       -2.6301387329
 C          1.9807862276       -0.0924062460       -1.5082170512
 C          2.7513975697       -0.6843333394       -0.3062181251
 C          1.7900091258       -1.5670527959        0.5013898987
 C          3.8877594659       -1.5806928546       -0.8163787130
 C          3.3210447610        0.4722503284        0.5896330145
 C          2.2747510851        1.5678769093        0.8403767643
 C          3.7650277624       -0.0484969251        1.9647079339
 C          4.5414143910        1.1370395593       -0.0631744850
 H          1.0365954367       -0.5628141509       -3.3775680646
 H          1.0747348591       -1.9232997408       -2.2653348624
 H          2.5384334520       -1.4386643468       -3.1242337735
 H          1.0455530248        0.3310227433       -1.1431341505
 H          2.5635930031        0.7186809134       -1.9473876978
 H          1.2802622776       -2.2635120838       -0.1598558425
 H          1.0352559893       -0.9713508061        1.0083082690
 H          2.3255213936       -2.1519707389        1.2437236154
 H          3.4779800831       -2.4951939913       -1.2375061509
 H          4.5561432938       -1.8646061879       -0.0079395447
 H          4.4698528399       -1.0810584910       -1.5855891182
 H          1.3483562004        1.1543311506        1.2299043521
 H          2.0539643535        2.1251903313       -0.0652424366
 H          2.6575035987        2.2703376103        1.5783753016
 H          4.4314020277       -0.9023611357        1.8775977649
 H          2.9118592150       -0.3340727412        2.5733472894
 H          4.3018771236        0.7375491777        2.4923982264
 H          4.3364551699        1.4405537093       -1.0863186131
 H          5.3990836601        0.4706182707       -0.0650548154
 H          4.8130470508        2.0285709778        0.4989368453
 C         -1.4688378128        1.9798202213       -1.6376510067
 C         -1.8008841083        1.3340622649       -0.2944646458
 C         -2.8060233407        0.1609863487       -0.3414686237
 C         -3.9855259808        0.5345537293       -1.2492674002
 C         -2.1057977619       -1.0549400720       -0.9637151126
 C         -3.3095426058       -0.1726874435        1.1075956478
 C         -4.3166279474        0.8735645166        1.6062871782
 C         -4.0074305762       -1.5398127694        1.1589205587
 C         -2.1525003434       -0.2202643323        2.1162898017
 H         -1.1133619607        1.2494930190       -2.3599110905
 H         -0.6806989338        2.7172058919       -1.4946426509
 H         -2.3306636607        2.4902940525       -2.0580736796
 H         -2.1872761361        2.1181469788        0.3583948017
 H         -0.8698923826        0.9709940512        0.1423061481
 H         -3.6654508079        0.5429484130       -2.2879487749
 H         -4.3768321065        1.5179647764       -1.0044282854
 H         -4.7915663739       -0.1889302785       -1.1618832617
 H         -1.6265329410       -0.7714418390       -1.8969875358
 H         -2.8185636434       -1.8434831801       -1.1872826107
 H         -1.3396676804       -1.4542315572       -0.3050180320
 H         -5.2573924784        0.8023546316        1.0682347316
 H         -3.9333779818        1.8850306290        1.5011414037
 H         -4.5223622762        0.7051082790        2.6616534559
 H         -3.2965591209       -2.3510546413        1.0311556251
 H         -4.7773648403       -1.6287937744        0.3974028755
 H         -4.4852043468       -1.6653066097        2.1287278181
 H         -1.7370802067        0.7675293846        2.2951825208
 H         -1.3567425149       -0.8795551435        1.7794950047
 H         -2.5177954675       -0.6037042124        3.0671668626
