  58
        -58.97303071
 C          2.1132135367        0.7088864761       -2.8109931642
 C          2.0797021533        0.7433025069       -1.2848679302
 C          2.9429255859       -0.3208430047       -0.5694734893
 C          2.2648878096       -1.6881203373       -0.7335368830
 C          4.3199318431       -0.4026024145       -1.2419235077
 C          3.0934319671        0.0431423675        0.9501348295
 C          1.7523097080        0.4617247168        1.5694394827
 C          3.6128399363       -1.1499672677        1.7658146192
 C          4.0804082631        1.2014303541        1.1542511834
 H          3.0986656198        0.9567102269       -3.1951426164
 H          1.4103134114        1.4429436984       -3.2016032634
 H          1.8247671423       -0.2645793976       -3.1987723930
 H          1.0443460194        0.6142876633       -0.9698527299
 H          2.4006058705        1.7387335548       -0.9738262753
 H          2.0237757654       -1.8599792706       -1.7793555078
 H          1.3401512685       -1.7478853478       -0.1659443929
 H          2.9218016396       -2.4911729463       -0.4120369049
 H          4.2282972919       -0.8710138940       -2.2184700019
 H          5.0074866573       -1.0050345995       -0.6543425783
 H          4.7540132265        0.5842487481       -1.3755544846
 H          0.9792584561       -0.2774858504        1.3771896453
 H          1.4209382908        1.4236823148        1.1885675154
 H          1.8636818461        0.5509995040        2.6486443504
 H          4.5107183686       -1.5779204537        1.3284545823
 H          2.8607437218       -1.9293287731        1.8481385851
 H          3.8606797360       -0.8187587491        2.7725269539
 H          3.8396620876        2.0526176207        0.5229617096
 H          5.0999277453        0.8919210548        0.9436542358
 H          4.0400060694        1.5345623059        2.1896067060
 C         -1.5386553851       -0.6299342738       -2.3101982990
 C         -1.9075162500       -0.7728083588       -0.8356427465
 C         -2.7903955644        0.3529545244       -0.2504236618
 C         -1.9263356772        1.6107420690       -0.0834098164
 C         -3.9143215786        0.6891645560       -1.2396350525
 C         -3.3871707551       -0.0947151480        1.1307276733
 C         -2.3256595894       -0.7529147274        2.0241900820
 C         -3.9537485653        1.1000403832        1.9117728755
 C         -4.5295541909       -1.1038959311        0.9462410434
 H         -2.4099420053       -0.7345122512       -2.9506155487
 H         -0.8307627918       -1.4120698584       -2.5779447936
 H         -1.0693697205        0.3276797893       -2.5182107025
 H         -0.9815263751       -0.8159148494       -0.2607622496
 H         -2.4143638201       -1.7316450045       -0.7169644937
 H         -1.3916272518        1.8204030890       -1.0065464019
 H         -1.1912712507        1.4878581972        0.7074843676
 H         -2.5393891201        2.4780712338        0.1439002795
 H         -3.5048715372        1.2045141157       -2.1046301139
 H         -4.6509084284        1.3468901486       -0.7860777522
 H         -4.4195503501       -0.2085612439       -1.5844271019
 H         -1.4451581537       -0.1244736394        2.1276784748
 H         -2.0210233159       -1.7208769490        1.6363719173
 H         -2.7381767902       -0.9095725639        3.0190717718
 H         -4.6402517749        1.6879428003        1.3086426477
 H         -3.1602007616        1.7500415949        2.2688354071
 H         -4.5025431192        0.7370831716        2.7787075676
 H         -4.2369446070       -1.9324956280        0.3067902832
 H         -5.4081187091       -0.6301932257        0.5180211452
 H         -4.8104989409       -1.5151211797        1.9139133196
