  32
        -43.59718692
 C          2.0227872672        1.1675469843       -1.1867365685
 C          2.3010154931        0.2041637052       -0.0316505926
 C          3.6938290278        0.4398860351        0.5529360505
 O          1.3195618378        0.3800336501        0.9957698698
 C          2.1766572645       -1.2599698726       -0.5128137233
 O          0.9604110021       -1.5444178977       -1.1384692880
 H          1.9463229354        2.1909999184       -0.8232550835
 H          1.0920296388        0.8947813033       -1.6779429230
 H          2.8245631436        1.1125402410       -1.9170296918
 H          3.8536532900       -0.2092126013        1.4112596660
 H          3.7976466299        1.4757221142        0.8735174256
 H          4.4580378486        0.2302996618       -0.1893636496
 H          1.4702455010        1.2333894151        1.4190232882
 H          2.3448826930       -1.9228485895        0.3454349898
 H          2.9570356854       -1.4425569505       -1.2560204074
 H          0.2657018407       -1.6219073844       -0.4572780895
 C         -3.6659943727        1.0865543025        0.2530246936
 C         -2.3051355527        0.4278967201        0.0306936123
 C         -2.1182374139        0.0719889479       -1.4478043504
 O         -1.3263855622        1.3659380301        0.4422140689
 C         -2.2086414280       -0.8429336640        0.9101196041
 O         -0.9168269784       -1.4054514093        0.9475304698
 H         -3.7574003893        1.9570964379       -0.3902670600
 H         -3.7525408748        1.4136062674        1.2857818955
 H         -4.4669261216        0.3880916495        0.0293929202
 H         -2.1052285450        0.9842934665       -2.0404598770
 H         -2.9362424069       -0.5561067238       -1.7891103533
 H         -1.1838558608       -0.4621566718       -1.6052782228
 H         -0.4497704280        0.9812331064        0.2821958096
 H         -2.8638624338       -1.6179116979        0.5089511594
 H         -2.5352645196       -0.5960268842        1.9288511701
 H         -0.3065474576       -0.7565770712        1.3337035266
