  32
        -43.59724428
 C          3.3431888224        1.4052030795       -0.2432265891
 C          2.3368080799        0.3297541107        0.1702662083
 C          2.9642250203       -0.6609167072        1.1485786188
 O          1.2416961198        1.0073949464        0.7618710518
 C          1.8126120730       -0.4121056225       -1.0866420805
 O          0.7957402314        0.3446011614       -1.7080328075
 H          4.2523556981        0.9458524752       -0.6196386177
 H          3.5826374083        2.0258099749        0.6158981861
 H          2.9183345062        2.0395816054       -1.0178254478
 H          3.3906274710       -0.1246428548        1.9926238174
 H          3.7489084024       -1.2304272135        0.6578901423
 H          2.2085633164       -1.3491010039        1.5229943000
 H          0.6426481856        0.3405490825        1.1574266135
 H          1.4037845567       -1.3912515372       -0.8044244104
 H          2.6234559811       -0.5724597403       -1.8032112412
 H          0.6523794706        1.1055224314       -1.1162763465
 C         -2.1056606708        1.3110521675       -0.2813378708
 C         -2.3699192517       -0.1824593057       -0.0864748892
 C         -3.8509583465       -0.4931366584       -0.3080495387
 O         -1.6206860440       -0.9695253162       -1.0025059676
 C         -1.9482143548       -0.6192037560        1.3478746427
 O         -0.5941852427       -1.0100033861        1.3644458971
 H         -2.8394957422        1.8911672163        0.2722465690
 H         -2.1845277400        1.5683082619       -1.3358876163
 H         -1.1161462241        1.5813580109        0.0812216664
 H         -4.4533769899       -0.0465982997        0.4781848345
 H         -4.0017102577       -1.5693473119       -0.3088074935
 H         -4.1683868062       -0.1018870954       -1.2708643389
 H         -0.8885438133       -0.4459347375       -1.3797944781
 H         -2.5708431415       -1.4619171908        1.6749673988
 H         -2.0616141700        0.2012798312        2.0568553609
 H         -0.4922863945       -1.5262734182        0.5434503642
