  32
        -43.59734732
 C          3.3446598500        1.0168399623       -0.6029610491
 C          2.3041404136        0.0878756038        0.0264401257
 C          2.9208689474       -0.7954731218        1.1051525203
 O          1.2917197096        0.8698871094        0.6573710298
 C          1.6499974356       -0.7814880469       -1.0743666193
 O          0.8711670957       -0.0163196796       -1.9608773700
 H          3.6802926273        1.7481470615        0.1287731634
 H          2.9059804607        1.5370215378       -1.4527275366
 H          4.2001235853        0.4447249359       -0.9497348658
 H          3.3931135913       -0.1734896583        1.8606593514
 H          3.6642465881       -1.4559835563        0.6689744559
 H          2.1475894874       -1.3924870704        1.5818534225
 H          0.8586237614        1.3820490082       -0.0403902846
 H          1.0505514719       -1.5697426547       -0.6020737310
 H          2.4326535656       -1.2502319971       -1.6745940751
 H          0.0390906202        0.2266006878       -1.5233947277
 C         -3.7346141570        0.7050212704        0.0925562257
 C         -2.3386892033        0.0809265068        0.0655568234
 C         -2.2886684263       -1.1066292463       -0.8922587510
 O         -1.3942786605        1.0403098991       -0.4173925890
 C         -1.9295968409       -0.3609936446        1.4905524524
 O         -0.6661819743       -0.9538510936        1.5414652403
 H         -4.0033258375        1.0453118507       -0.9048688423
 H         -3.7615058335        1.5568356618        0.7713813796
 H         -4.4688380679       -0.0223382364        0.4255622891
 H         -3.1109323384       -1.7847083752       -0.6855652378
 H         -1.3548657854       -1.6468799014       -0.7619570121
 H         -2.3593722910       -0.7574165785       -1.9189477022
 H         -1.4700681625        1.8342011522        0.1243186604
 H         -2.6390955816       -1.1113237225        1.8475016894
 H         -1.9798830042        0.5109627352        2.1634679108
 H          0.0065541922       -0.2921170772        1.2795464303
