  32
        -43.59719907
 C          2.3898564795        1.3478369103       -0.9520412190
 C          2.3207795507        0.2069151007        0.0625373535
 C          3.6068674380        0.1169897347        0.8819785692
 O          1.2585306470        0.4401092552        0.9831043694
 C          2.0839889358       -1.1317093867       -0.6822881030
 O          0.8553381632       -1.1704238157       -1.3600221128
 H          2.3943293645        2.3067945441       -0.4381005157
 H          1.5267734493        1.2968092513       -1.6133957321
 H          3.2911180560        1.2655575579       -1.5529292879
 H          3.4961366687       -0.6387153236        1.6550800310
 H          3.8028557497        1.0725208739        1.3610462482
 H          4.4465002236       -0.1447035560        0.2449462132
 H          0.5285046102        0.8731408888        0.5054485025
 H          2.1560141308       -1.9589612939        0.0354703307
 H          2.8614698595       -1.2569515726       -1.4398779853
 H          0.1558703480       -1.2867576919       -0.6932274147
 C         -3.5443234410        1.1735396917        0.3873096125
 C         -2.3243348719        0.3298705430        0.0029131714
 C         -2.6063083573       -0.4543896297       -1.2795134728
 O         -1.1932201571        1.1814172523       -0.1783549621
 C         -1.9799882519       -0.6215627089        1.1719769194
 O         -0.8195518890       -1.3813360296        0.9673198186
 H         -3.8177435457        1.8365146835       -0.4315937605
 H         -3.3182433472        1.7792851079        1.2616671856
 H         -4.3914237616        0.5327225080        0.6129973389
 H         -3.4375178419       -1.1358043596       -1.1238944966
 H         -1.7337405837       -1.0296071273       -1.5769015818
 H         -2.8641785877        0.2282720527       -2.0885435130
 H         -1.3228418918        1.6887390946       -0.9867911352
 H         -2.8031915828       -1.3311904094        1.2891722620
 H         -1.8950899065       -0.0286504208        2.0896720316
 H         -0.0433058114       -0.8319379049        1.2005974694
