  32
        -43.59786436
 C          3.3355684914        0.3523231796       -1.2812217525
 C          2.2025825627        0.3728546682       -0.2514994233
 C          2.4066112247        1.4813232434        0.7744280104
 O          0.9698889110        0.6187447161       -0.9227754621
 C          2.1027786411       -1.0142579768        0.4383774682
 O          1.4522286936       -1.9356647374       -0.4086450319
 H          4.2988434741        0.2908810085       -0.7833907131
 H          3.3038371693        1.2576319717       -1.8829345773
 H          3.2215142114       -0.5108130582       -1.9339850428
 H          1.5600606002        1.5292038695        1.4551316612
 H          2.4957509049        2.4379214134        0.2665849498
 H          3.3113659291        1.2953814127        1.3458178294
 H          0.7903504382       -0.1974183089       -1.4175926763
 H          1.5779140662       -0.9175842442        1.3938079992
 H          3.1104720815       -1.3912676770        0.6348423332
 H          0.5275550349       -2.0381109451       -0.1150881641
 C         -3.4032605026        0.4053785863        1.2192100863
 C         -2.2576884610        0.4369126244        0.2065836513
 C         -2.5720397583        1.3828849017       -0.9506409743
 O         -1.1047450413        0.8602623268        0.9121304243
 C         -1.9827102419       -0.9938236361       -0.3264577199
 O         -1.1637616038       -1.6949392715        0.5841719469
 H         -4.3402527442        0.1730944518        0.7217873842
 H         -3.4838965988        1.3741561850        1.7045627954
 H         -3.2080458801       -0.3460901983        1.9806977013
 H         -3.4093063439        1.0045050209       -1.5308725505
 H         -1.7050322582        1.4799075215       -1.6015611226
 H         -2.8246857087        2.3667591425       -0.5635574492
 H         -0.3740987814        0.9694400355        0.2672277234
 H         -1.4751131447       -0.9402484344       -1.2991681551
 H         -2.9179354628       -1.5451249132       -0.4559337891
 H         -0.8938013238       -1.0194255058        1.2367017172
