  32
        -43.59739609
 C          2.2034031868        1.6013505223       -0.7394223834
 C          2.2992527782        0.3165445857        0.0859789788
 C          3.6592801520        0.2359642988        0.7862403460
 O          1.2552948534        0.3758486854        1.0503963215
 C          2.1110692393       -0.9272705569       -0.8161513620
 O          0.7687449894       -1.2223243700       -1.0982640404
 H          1.2872317873        1.6213305495       -1.3247280388
 H          3.0539548758        1.6773184628       -1.4104481663
 H          2.2014663324        2.4586488513       -0.0713571394
 H          3.7010717612       -0.6330504130        1.4403544110
 H          3.8166738015        1.1281154579        1.3871170757
 H          4.4565984701        0.1576177954        0.0527210296
 H          1.1746321836       -0.4870271128        1.4763538122
 H          2.5059581118       -1.8161538287       -0.3130693615
 H          2.6780880470       -0.7797279642       -1.7456120413
 H          0.2764532377       -0.4016658517       -1.2970003590
 C         -3.0933773505        1.4918277196        0.3882220008
 C         -2.2171060434        0.3113786353       -0.0454100420
 C         -2.9001865472       -0.5014132853       -1.1432572189
 O         -0.9996148695        0.8096234076       -0.5937137500
 C         -1.9144673035       -0.5692929655        1.1835215813
 O         -1.1928592525       -1.7378900845        0.9069229716
 H         -3.2660521120        2.1461303053       -0.4625183322
 H         -2.5969029815        2.0640809446        1.1697337624
 H         -4.0494294033        1.1409157666        0.7651003001
 H         -2.9956603486        0.1063827514       -2.0389725760
 H         -3.8856082871       -0.8182702932       -0.8157836194
 H         -2.3062122692       -1.3813272672       -1.3774379122
 H         -0.4022665621        1.0369111736        0.1397501765
 H         -2.8549592882       -0.8897863100        1.6394908098
 H         -1.3709198078        0.0485073421        1.9205088719
 H         -0.5125156849       -1.5528807973        0.2321386137
