  32
        -43.59718635
 C          2.0238033494        1.1664090233       -1.1881962909
 C          2.3011523679        0.2041694838       -0.0319515507
 C          3.6932032624        0.4410056877        0.5539386862
 O          1.3184831900        0.3806493338        0.9943054194
 C          2.1777686165       -1.2603253389       -0.5122330394
 O          0.9621931215       -1.5456213525       -1.1388362792
 H          1.9458637253        2.1900417704       -0.8255844189
 H          1.0940079702        0.8924803990       -1.6805531966
 H          2.8267447842        1.1115574317       -1.9172144038
 H          3.8517446321       -0.2061141161        1.4140389707
 H          3.7967436393        1.4775985663        0.8722325430
 H          4.4585165945        0.2295598538       -0.1867442207
 H          1.4702182168        1.2331819060        1.4188421105
 H          2.3454027719       -1.9225097792        0.3466623579
 H          2.9588549422       -1.4432498225       -1.2546197976
 H          0.2666888791       -1.6224367217       -0.4584465404
 C         -3.6666429105        1.0864255231        0.2536379873
 C         -2.3055123089        0.4282804714        0.0313948118
 C         -2.1178245568        0.0733269514       -1.4472380946
 O         -1.3272830672        1.3663751563        0.4439686616
 C         -2.2089955552       -0.8431474235        0.9099274736
 O         -0.9173331708       -1.4061544496        0.9461262043
 H         -4.4673483209        0.3882855722        0.0282400491
 H         -3.7575321563        1.9579469207       -0.3883960445
 H         -3.7540783217        1.4119189702        1.2868093663
 H         -2.9338368832       -0.5574251777       -1.7884784290
 H         -1.1817317955       -0.4578233119       -1.6049719632
 H         -2.1078258865        0.9857708682       -2.0397285487
 H         -0.4503898356        0.9819086280        0.2847232754
 H         -2.8647570983       -1.6176403839        0.5087119026
 H         -2.5348895575       -0.5967567336        1.9290165586
 H         -0.3068086341       -0.7580450002        1.3330686860
