  32
        -43.59787571
 C          2.9630798540        1.2616921616       -0.8054868136
 C          2.2891095251        0.2403285330        0.1131670769
 C          3.2121875755       -0.1703714597        1.2575164773
 O          1.1388078450        0.8192914674        0.7201363354
 C          1.8826986410       -1.0082344412       -0.7034103048
 O          1.0441662032       -0.7165684586       -1.7920926693
 H          2.3420147353        1.4383842168       -1.6819010747
 H          3.9283367196        0.8899760817       -1.1364263183
 H          3.1062375554        2.1992131869       -0.2734448389
 H          2.6919629283       -0.8548804412        1.9225366375
 H          3.4971225569        0.7103573745        1.8262680813
 H          4.1047020833       -0.6539760465        0.8723911735
 H          0.5197624685        1.0931559033        0.0250403750
 H          1.4088431128       -1.7342348842       -0.0269698667
 H          2.7784257689       -1.4652681808       -1.1289527994
 H          0.2122557499       -0.3409277189       -1.4589610060
 C         -2.9644250819        1.0399042959        0.8781221790
 C         -2.3137894101        0.0631463944       -0.0991222135
 C         -3.3281390079       -0.4554995903       -1.1197551993
 O         -1.2435013566        0.7173290226       -0.7968809669
 C         -1.6878172486       -1.1273003138        0.6621303229
 O         -0.9232947803       -0.7714491252        1.7725577540
 H         -3.3591904222        1.9062905532        0.3494276483
 H         -2.2298826649        1.3705636246        1.6083419964
 H         -3.7768433194        0.5488975901        1.4048747313
 H         -4.1338561480       -0.9836773078       -0.6193121089
 H         -2.8430981427       -1.1349936711       -1.8173547546
 H         -3.7556182664        0.3734881702       -1.6824169161
 H         -1.6182563770        1.4396618977       -1.3134180401
 H         -1.1043344278       -1.7233234201       -0.0557746074
 H         -2.4982903082       -1.7538197250        1.0432017742
 H         -0.1575611793       -0.2333946121        1.4884813306
