  32
        -43.59730272
 C          2.1213297206        1.1437958403       -1.2212655103
 C          2.2553207711        0.1868058981       -0.0398969565
 C          3.5769107003        0.4088932886        0.6983255944
 O          1.2025812223        0.4137879210        0.8982908600
 C          2.1910337331       -1.2785213472       -0.5411427808
 O          1.0130324138       -1.5832213204       -1.2400356188
 H          1.2247642041        0.9040698399       -1.7896751766
 H          2.9800840633        1.0503283848       -1.8800163467
 H          2.0588205511        2.1717369162       -0.8688076045
 H          4.4189890216        0.1863095711        0.0499290103
 H          3.6206947951       -0.2349132459        1.5728352729
 H          3.6429554586        1.4424910868        1.0284272799
 H          0.5087722580        0.9490109311        0.4725788674
 H          2.3208073348       -1.9502972822        0.3165274033
 H          3.0147205199       -1.4415709998       -1.2409051904
 H          0.2942177682       -1.7028983786       -0.5955350794
 C         -3.6949394389        1.0042682906        0.2757627922
 C         -2.2835586771        0.4437095892        0.0818841119
 C         -2.0456703200        0.0873961570       -1.3832798188
 O         -1.3207734159        1.4433304410        0.4190510729
 C         -2.1037351013       -0.7893421087        0.9993665071
 O         -0.8570187565       -1.4183365527        0.8963619388
 H         -3.8124307833        1.9103803496       -0.3139976394
 H         -3.8742969671        1.2444440957        1.3231999174
 H         -4.4381339464        0.2799073662       -0.0435473038
 H         -2.7675073153       -0.6558739558       -1.7068659043
 H         -1.0465149962       -0.3136661749       -1.5248109073
 H         -2.1521448787        0.9805137488       -1.9934580559
 H         -1.5098710060        1.7682490755        1.3069558674
 H         -2.8471824580       -1.5426892943        0.7292133165
 H         -2.2876856589       -0.4819386763        2.0416232821
 H         -0.1483445874       -0.7804788081        1.1293040787
