  32
        -43.59827042
 C          3.5555966911        1.2326021599       -0.0088865708
 C          2.4736247434        0.1653531384        0.1627877193
 C          3.0827654278       -1.1708427747        0.5829570140
 O          1.5827583905        0.6545152973        1.1499475040
 C          1.6772189084        0.0019769962       -1.1583480895
 O          0.6853805176        1.0029564178       -1.2523327488
 H          4.0044350047        1.4516673604        0.9560172375
 H          3.1168005107        2.1473214378       -0.4002672433
 H          4.3239243831        0.8847886420       -0.6929622051
 H          2.2974998475       -1.8932790136        0.7991606298
 H          3.6833817525       -1.0359948148        1.4789911511
 H          3.7130076817       -1.5639496943       -0.2101919854
 H          0.9344035780       -0.0434092644        1.3708497364
 H          1.1956100096       -0.9850592391       -1.1861756951
 H          2.3412359609        0.0860529718       -2.0223770965
 H          0.6674252606        1.4099475998       -0.3644205334
 C         -3.0920881211        1.1650475695       -0.5840033210
 C         -2.4740744736       -0.1668409203       -0.1631525131
 C         -3.5488268245       -1.2412066309        0.0094701820
 O         -1.5801795838       -0.6508035447       -1.1501627500
 C         -1.6783154879        0.0023357347        1.1574177897
 O         -0.6843286658       -0.9962522002        1.2540402983
 H         -3.6922495700        1.0256058595       -1.4796159773
 H         -2.3115893636        1.8923676327       -0.8011132384
 H         -3.7244203915        1.5546511041        0.2091799346
 H         -4.3209887105       -0.8968723235        0.6909978618
 H         -3.1044468703       -2.1516833415        0.4044446250
 H         -3.9941103879       -1.4662062185       -0.9557281702
 H         -0.9345704813        0.0500975136       -1.3696918792
 H         -2.3419743554       -0.0808511883        2.0217478952
 H         -1.1990125936        0.9906072686        1.1821713326
 H         -0.6631454981       -1.4032109886        0.3662421254
