  32
        -43.59733703
 C          3.1143090986        0.3801516768       -1.1240612905
 C          2.2577999199        0.2461205786        0.1319155646
 C          3.0220708066        0.7143535410        1.3740958278
 O          1.1189872099        1.0815141248       -0.0586122450
 C          1.8128930312       -1.2198553029        0.3345519747
 O          1.2663951245       -1.8297324601       -0.8007661940
 H          3.3312336569        1.4288250349       -1.3076936459
 H          2.5781379558       -0.0243655339       -1.9784610012
 H          4.0439956770       -0.1666886812       -1.0014555040
 H          2.4065884382        0.5954910502        2.2645040779
 H          3.2794559664        1.7654466106        1.2676776630
 H          3.9343166236        0.1394420046        1.5017029785
 H          0.5015822306        0.9486731246        0.6830899944
 H          1.1009291701       -1.2501114363        1.1773193580
 H          2.6838332086       -1.8219542868        0.6043159867
 H          0.5268165552       -1.2969302353       -1.1397388547
 C         -2.0976502841       -1.3554352190        0.7241269338
 C         -2.3340493609        0.1126957119        0.3786518133
 C         -3.7517706818        0.5360667923        0.7699806552
 O         -1.3850723657        0.8740304463        1.1291763105
 C         -2.1275655333        0.3608209977       -1.1351446602
 O         -0.8596327696        0.0021075899       -1.6077067061
 H         -1.1473998083       -1.6937918404        0.3231091618
 H         -2.8877768849       -1.9672302984        0.2999514532
 H         -2.0892871380       -1.4777276443        1.8040906720
 H         -4.4869363321       -0.0600162252        0.2377755390
 H         -3.9199957090        1.5854379292        0.5297911252
 H         -3.8938887827        0.3964411762        1.8391450181
 H         -1.5990038158        1.8088787213        1.0276145374
 H         -2.3309772582        1.4213180039       -1.3527821433
 H         -2.8442590539       -0.2473870041       -1.6917225829
 H         -0.1815616818        0.5679134982       -1.1787770420
