%nprocshared=4
%mem=8000mb
%chk=dimer.chk
%nprocshared=4
%mem=8000mb
#T wB97XD/def2svpp opt=tight freq int(grid=ultrafine) scf=(verytight,qc) Volume=tight

Dimer

0 1
 C          2.3383967931        1.5013245967       -0.8006040132
 C          2.2577798020        0.2615027802        0.0904199670
 C          3.5582559032        0.0701770867        0.8705226618
 O          1.2175412472        0.4203650611        1.0490500101
 C          2.0012341210       -1.0016690462       -0.7771669280
 O          0.6928622977       -1.0741668524       -1.2985921758
 H          3.2095788538        1.4452758272       -1.4473544035
 H          2.4165514663        2.3939677204       -0.1836416047
 H          1.4478712014        1.5810478923       -1.4206414797
 H          4.3765842735       -0.1580437848        0.1940423370
 H          3.4445773726       -0.7439440867        1.5816213426
 H          3.7903656993        0.9769875199        1.4221630473
 H          0.4848259940        0.9077514307        0.6219375523
 H          2.2192015798       -1.8964067395       -0.1836654083
 H          2.6784429700       -0.9797439161       -1.6343711504
 H          0.1165937119       -1.4481623397       -0.6032323708
 C         -3.2522312534        1.3508635089        0.3561080490
 C         -2.2376457237        0.2812827951       -0.0470465774
 C         -2.7752245428       -0.5684260330       -1.1991642320
 O         -1.0572987504        0.9626631613       -0.4570770547
 C         -1.9386313986       -0.6190074588        1.1832972091
 O         -0.8044056195       -1.4418465195        1.0196781106
 H         -3.5285029994        1.9393433902       -0.5144676651
 H         -2.8116745561        2.0162406598        1.0939920022
 H         -4.1419966747        0.8909790119        0.7757730096
 H         -2.0926588389       -1.3871538157       -1.4183595421
 H         -2.8837173870        0.0454893187       -2.0908208784
 H         -3.7451012724       -0.9840875521       -0.9405269613
 H         -0.5547213034        0.3668451671       -1.0442891433
 H         -2.7900880411       -1.2854585076        1.3420174494
 H         -1.8198136094        0.0121280126        2.0704042649
 H         -0.0165697141       -0.9145381779        1.2666226283


