  28
        -27.33755669
 C          3.2851459720       -0.3651340496       -0.7955005744
 C          2.6176091027        0.1405803987        0.4808740813
 C          1.7439007819        1.3550363153        0.1776673837
 C          1.7884796105       -0.9693994658        1.1218595916
 H          3.9249415191       -1.2186499850       -0.5824028980
 H          3.8939295781        0.4156225878       -1.2462315563
 H          2.5323067844       -0.6735387468       -1.5183403214
 H          3.3998946107        0.4426861212        1.1868953070
 H          0.9660285634        1.0907619000       -0.5351914098
 H          2.3394902792        2.1600791730       -0.2474017522
 H          1.2678646887        1.7233225980        1.0838451387
 H          2.4150945768       -1.8253680837        1.3630122966
 H          1.0069823850       -1.2977258734        0.4402366059
 H          1.3208083003       -0.6189389363        2.0395522464
 C         -1.6679720794       -0.9511346134       -1.1358430378
 C         -2.0555255931        0.0008841236       -0.0069286985
 C         -2.4085421907        1.3764035667       -0.5669761656
 C         -3.2269228882       -0.5679677675        0.7893873465
 H         -1.4004292417       -1.9287352879       -0.7398608923
 H         -0.8190184813       -0.5622612061       -1.6946764464
 H         -2.4997643650       -1.0783461458       -1.8258903323
 H         -1.1992385802        0.1098979071        0.6675083977
 H         -3.2625279466        1.3045775158       -1.2376483054
 H         -1.5710719495        1.7932084501       -1.1223613620
 H         -2.6606060894        2.0643707517        0.2369362813
 H         -2.9689380851       -1.5363296374        1.2126354297
 H         -4.0958827042       -0.6949308337        0.1467012036
 H         -3.4976031905        0.1006776808        1.6035693002
