  28
        -27.33763149
 C          2.0199948956        1.1697680696        0.9078368748
 C          2.0748974300        0.0083726196       -0.0814126770
 C          3.4165070498       -0.0093178764       -0.8092782359
 C          1.8422864128       -1.3160603423        0.6408282430
 H          1.0633636155        1.1890434806        1.4257409618
 H          2.1511790292        2.1193252663        0.3934449470
 H          2.8085806072        1.0706320614        1.6511400051
 H          1.2796534964        0.1436713508       -0.8230876451
 H          3.4517744304       -0.8238041444       -1.5294799928
 H          4.2302708723       -0.1438990319       -0.0993731658
 H          3.5771149337        0.9258459345       -1.3412737147
 H          2.6207281573       -1.4846076918        1.3823025562
 H          1.8546591270       -2.1452029611       -0.0634429883
 H          0.8809146234       -1.3104846675        1.1495955767
 C         -1.7917453976       -0.8502475772       -1.1779878280
 C         -2.0238823827        0.2192119788       -0.1138134707
 C         -3.0625915567        1.2307913104       -0.5912281554
 C         -2.4685018580       -0.4217251392        1.1983698183
 H         -1.0350981661       -1.5596178029       -0.8509298282
 H         -1.4584207017       -0.3983374610       -2.1097701655
 H         -2.7128955259       -1.3959496125       -1.3726215427
 H         -1.0799748654        0.7478865679        0.0593932657
 H         -4.0147972451        0.7372171718       -0.7754246566
 H         -2.7387222114        1.7062921903       -1.5144600483
 H         -3.2169079316        2.0051141402        0.1570786742
 H         -1.7263027775       -1.1357273253        1.5492899850
 H         -3.4107176110       -0.9487695699        1.0616876208
 H         -2.6073979158        0.3344158172        1.9681966129
