  28
        -27.33759189
 C          2.2064705117        0.9916692344        1.2333079670
 C          1.9599488681        0.0894585625        0.0267750185
 C          3.0727790998        0.2608356409       -1.0037980047
 C          1.8562711191       -1.3696057406        0.4639190723
 H          2.2500145631        2.0354741251        0.9299357702
 H          3.1494838277        0.7334043528        1.7108645955
 H          1.4108736408        0.8812346226        1.9673707436
 H          1.0114503152        0.3827300579       -0.4387008675
 H          4.0318297883       -0.0226925730       -0.5749331921
 H          3.1363305671        1.2962425932       -1.3314500221
 H          2.8887119385       -0.3638557225       -1.8752318309
 H          1.0481180742       -1.5009598741        1.1804228455
 H          2.7847238138       -1.6894929197        0.9326513925
 H          1.6654420119       -2.0148727758       -0.3912093787
 C         -2.0999827825        0.3546816053        1.2128150039
 C         -2.6588148696       -0.0162823321       -0.1584332448
 C         -2.3218537168        1.0657773779       -1.1811755061
 C         -2.1096922121       -1.3668520278       -0.6110520709
 H         -2.5090278630        1.3045793587        1.5502305723
 H         -1.0170974160        0.4452742710        1.1659292602
 H         -2.3502159381       -0.4068638595        1.9483830483
 H         -3.7496412777       -0.0926344597       -0.0803426811
 H         -1.2431609485        1.1670383119       -1.2838457918
 H         -2.7274167564        2.0266321072       -0.8719978193
 H         -2.7361555443        0.8159550603       -2.1554818874
 H         -2.3616575452       -2.1439960503        0.1072961423
 H         -1.0267867537       -1.3228466992       -0.7026735007
 H         -2.5252188332       -1.6457327541       -1.5769830136
