  28
        -27.33756810
 C          2.3709540201        1.5148662229        0.2467528782
 C          2.0658239962        0.0803939659       -0.1766389019
 C          3.1892524455       -0.4684189561       -1.0522514321
 C          1.8657948766       -0.8069809445        1.0493122448
 H          1.5603034905        1.9190986154        0.8490096230
 H          2.4992997822        2.1527672683       -0.6249757612
 H          3.2859936881        1.5497595874        0.8347661750
 H          1.1393214688        0.0805686316       -0.7606188297
 H          4.1270131999       -0.4830539419       -0.5002584528
 H          3.3224969011        0.1495239062       -1.9375554806
 H          2.9644704927       -1.4831863123       -1.3733720877
 H          2.7723001276       -0.8318649377        1.6508483347
 H          1.6251661731       -1.8253601359        0.7511831817
 H          1.0556801379       -0.4299815311        1.6702074601
 C         -3.3804010364       -0.4722764702        0.9550735825
 C         -2.6364057907        0.0307335357       -0.2794549403
 C         -1.7579825910        1.2261802310        0.0802448226
 C         -1.7942700325       -1.0892827920       -0.8850760697
 H         -3.9960070503        0.3170736639        1.3809172759
 H         -2.6732002913       -0.8027306127        1.7133695456
 H         -4.0255502476       -1.3101624343        0.7000577849
 H         -3.3743815452        0.3526546502       -1.0234040834
 H         -1.0190229011        0.9392292690        0.8252341611
 H         -2.3593727999        2.0358763111        0.4879290650
 H         -1.2337123655        1.5976527481       -0.7975015998
 H         -2.4211864820       -1.9350898515       -1.1590624072
 H         -1.0501182552       -1.4312736816       -0.1689431341
 H         -1.2791056666       -0.7428137176       -1.7785350011
