  28
        -27.33753679
 C          1.8716877285        1.2605044367       -0.3321798124
 C          2.0780279295       -0.1284187214        0.2662617119
 C          2.4147679965       -1.1359550662       -0.8301164262
 C          3.1820822482       -0.0977267205        1.3199543492
 H          1.6099111017        1.9781318053        0.4423948250
 H          1.0723898722        1.2447463474       -1.0692322768
 H          2.7831571917        1.5998400241       -0.8202759694
 H          1.1459382866       -0.4410323488        0.7518949655
 H          3.3433333318       -0.8584313137       -1.3249058544
 H          1.6254644924       -1.1689321694       -1.5781505511
 H          2.5339772670       -2.1334605234       -0.4124634031
 H          2.9362333839        0.6048651599        2.1133446287
 H          4.1245967662        0.2087343013        0.8706050757
 H          3.3177463732       -1.0818920034        1.7632924714
 C         -3.1684690468       -0.8602873631        0.7560189133
 C         -2.6984073942        0.1558429501       -0.2818202669
 C         -1.9864118650        1.3217088530        0.3994066394
 C         -1.7773530999       -0.5117351375       -1.2997786080
 H         -3.8412390394       -0.3943012696        1.4726774898
 H         -2.3174319332       -1.2669465367        1.2988598761
 H         -3.6944455532       -1.6833451928        0.2771812695
 H         -3.5765503645        0.5452397203       -0.8100604293
 H         -1.1091458055        0.9671869714        0.9361625303
 H         -2.6481173931        1.8129408280        1.1095248203
 H         -1.6646868431        2.0576174499       -0.3342290622
 H         -2.2897580766       -1.3283677021       -1.8038532434
 H         -0.8965139665       -0.9138210607       -0.8038679102
 H         -1.4529433572        0.2043557612       -2.0520446193
