  28
        -27.33754321
 C          2.2696560582        1.2133149364        0.8297872186
 C          2.0595075579       -0.0603224167        0.0149267328
 C          3.1844729438       -0.2340239870       -1.0021561813
 C          1.9822757884       -1.2766679107        0.9344430822
 H          2.3037353068        2.0836199640        0.1781376749
 H          3.2067350573        1.1598217114        1.3804998485
 H          1.4605294597        1.3527709858        1.5433225684
 H          1.1118886883        0.0276064976       -0.5282221306
 H          3.0271922597       -1.1295081735       -1.5995103247
 H          4.1427906552       -0.3244110580       -0.4944844199
 H          3.2309182620        0.6213498885       -1.6724609506
 H          2.9114129012       -1.3904826911        1.4894130604
 H          1.8150810089       -2.1843168854        0.3580312522
 H          1.1691722992       -1.1702374323        1.6498076765
 C         -1.9290309233       -1.2250409741       -0.6118174750
 C         -2.1263062547        0.2740803231       -0.4020570379
 C         -3.5097586607        0.7022905939       -0.8847711427
 C         -1.9399860105        0.6353787377        1.0692374495
 H         -0.9387266953       -1.5323014920       -0.2840044950
 H         -2.0383130340       -1.4832308733       -1.6629739946
 H         -2.6676140044       -1.7860044260       -0.0425721741
 H         -1.3724397643        0.8112644346       -0.9894365376
 H         -4.2832252687        0.1866042816       -0.3190503453
 H         -3.6396790788        0.4646248957       -1.9383057099
 H         -3.6473699352        1.7736085870       -0.7554455934
 H         -0.9496013977        0.3448727829        1.4113105209
 H         -2.6789762063        0.1219292126        1.6812167961
 H         -2.0542388827        1.7067200856        1.2192582075
