  28
        -27.33756663
 C          1.8268385870        0.2734137505        1.3579718880
 C          2.0557228500       -0.2778386646       -0.0470527301
 C          2.5052844145        0.8349122165       -0.9903229794
 C          3.0887911343       -1.4011175451       -0.0153940443
 H          1.4832007791       -0.5123523332        2.0275723103
 H          1.0802345485        1.0648224899        1.3446730857
 H          2.7513033040        0.6843329996        1.7589058934
 H          1.1100032574       -0.6866241755       -0.4184428261
 H          3.4427617510        1.2674262371       -0.6463092298
 H          1.7592408842        1.6252146018       -1.0365122312
 H          2.6550051056        0.4479148494       -1.9958533932
 H          2.7608854708       -2.2055838319        0.6393890298
 H          4.0431080815       -1.0279048805        0.3510691980
 H          3.2409148407       -1.8106513930       -1.0116353275
 C         -3.3708772922        0.8423724088        0.7113487810
 C         -2.6313125748       -0.0022437430       -0.3231626967
 C         -1.6383107840        0.8585053160       -1.0998218253
 C         -1.9140371732       -1.1660910482        0.3560393905
 H         -4.0965354559        0.2389952653        1.2523146202
 H         -3.8981625574        1.6636761055        0.2309239742
 H         -2.6681996699        1.2594543742        1.4301098073
 H         -3.3648987115       -0.4094300853       -1.0286580249
 H         -0.9010285377        1.2854315050       -0.4233594560
 H         -2.1507276017        1.6732072653       -1.6069477165
 H         -1.1154670838        0.2653905088       -1.8468993730
 H         -1.1757174478       -0.7934606185        1.0628114515
 H         -1.4051898629       -1.7858435533       -0.3792674195
 H         -2.6223979567       -1.7901343219        0.8966562864
