  28
        -27.33763501
 C          1.8700789501        1.2835641865        0.7161234402
 C          1.9476744717       -0.0370977073       -0.0458769190
 C          3.1472759197       -0.0383464139       -0.9897892051
 C          2.0316352605       -1.2121483582        0.9251365892
 H          1.7956211057        2.1213142911        0.0258852608
 H          2.7610431661        1.4201595171        1.3256535126
 H          1.0017262966        1.3022362012        1.3713712056
 H          1.0372809293       -0.1471134183       -0.6469950197
 H          4.0715175612        0.0745620006       -0.4265875595
 H          3.0765966511        0.7818630038       -1.7009906545
 H          3.1966129622       -0.9716033799       -1.5465583885
 H          1.1732459524       -1.2239996748        1.5936633044
 H          2.9336643477       -1.1390628112        1.5293163555
 H          2.0563767829       -2.1558277833        0.3845175824
 C         -2.1854766646       -0.0970195661        1.2875694930
 C         -2.6349286001        0.0190287977       -0.1664990032
 C         -2.0732507979        1.2905395455       -0.7977613022
 C         -2.1963061470       -1.2107974254       -0.9575359211
 H         -2.5099543603        0.7685778613        1.8610848398
 H         -1.1006988597       -0.1578271682        1.3406564488
 H         -2.6018657597       -0.9899679359        1.7486672438
 H         -3.7295954004        0.0743565040       -0.1891522597
 H         -0.9856889091        1.2702338998       -0.7872620038
 H         -2.4038300966        2.1696318253       -0.2487589868
 H         -2.4053755783        1.3859008489       -1.8292764681
 H         -2.6202262228       -2.1153062716       -0.5267767472
 H         -1.1121029406       -1.3024859709       -0.9444681890
 H         -2.5225333941       -1.1385075566       -1.9927761625
