  28
        -27.33752830
 C          2.3519850766        1.0681224699        1.1419658549
 C          2.0836183060        0.0769083433        0.0124021081
 C          3.2839860729        0.0003682426       -0.9274223509
 C          1.7606203690       -1.3029445116        0.5793659139
 H          1.4925400231        1.1375974519        1.8055068821
 H          2.5587621701        2.0589764646        0.7430994603
 H          3.2112039653        0.7485132940        1.7281514422
 H          1.2182931040        0.4298895892       -0.5610547730
 H          3.5009248625        0.9770515746       -1.3546564663
 H          3.0902494702       -0.6947554261       -1.7415270119
 H          4.1649485055       -0.3410107719       -0.3875565822
 H          0.8974281118       -1.2536880303        1.2387337632
 H          2.6065213812       -1.6840601473        1.1479560310
 H          1.5407972902       -2.0056462665       -0.2213886098
 C         -1.9489577356        0.3716232631        1.1386628321
 C         -2.7057682414       -0.1081412881       -0.0971154707
 C         -3.0068603514        1.0663234173       -1.0246887261
 C         -1.9029199553       -1.1767397478       -0.8345013365
 H         -2.5289150808        1.1167632078        1.6790035396
 H         -1.0004180293        0.8189181748        0.8492765434
 H         -1.7477425630       -0.4590459564        1.8119702736
 H         -3.6561487317       -0.5484267877        0.2263969243
 H         -2.0809249121        1.5257839226       -1.3650094212
 H         -3.5950672304        1.8222367616       -0.5089603525
 H         -3.5652978085        0.7336322000       -1.8969138633
 H         -1.6973452669       -2.0220728503       -0.1815993292
 H         -0.9537494932       -0.7687511934       -1.1749670538
 H         -2.4515109331       -1.5385199401       -1.7014294027
