  28
        -77.31952519
 C          2.1445189780       -1.3151729636        1.5698050083
 C          2.3360796503       -0.3461529137        0.4339723963
 N          1.7422134655        1.0467372587        0.7694354734
 O          2.0022081699        1.4473667478        1.8580505748
 O          1.1141244525        1.5620463086       -0.1016905846
 N          3.8334675150       -0.1284466958        0.1323131629
 O          4.5011893451       -1.1172461300        0.1454771699
 O          4.1622159699        0.9980583994       -0.0828826021
 N          1.6930777596       -0.8324164569       -0.8573162004
 O          2.3473593176       -0.7338343862       -1.8493623135
 O          0.5816110126       -1.2716040661       -0.7474989561
 H          1.1332467484       -1.7178195279        1.5622848525
 H          2.3062346965       -0.8018403018        2.5174312825
 H          2.8549828286       -2.1367928546        1.4828708970
 C         -2.6003965219       -1.3394574920       -1.4419425942
 C         -2.4466397172       -0.2628977489       -0.4025252318
 N         -1.5903621082       -0.7310180116        0.7588918808
 O         -0.7678968934        0.0444696373        1.1625470098
 O         -1.8077246975       -1.8325638459        1.1618040322
 N         -1.7878246860        1.0123781108       -0.9983986449
 O         -2.1908031848        2.0434906167       -0.5566457896
 O         -0.9634276710        0.8150827931       -1.8326455818
 N         -3.8068374166        0.1682218991        0.1704033459
 O         -4.6541213414        0.3720479451       -0.6445010195
 O         -3.8714429076        0.2504197441        1.3597529993
 H         -1.6802471881       -1.4206376218       -2.0199222354
 H         -3.4241632614       -1.0936064945       -2.1106828430
 H         -2.7990978387       -2.2966042081       -0.9621574432
