  28
        -77.31995629
 C          1.5060272550       -0.6048891122        1.9385884174
 C          2.0863389872       -0.2839180593        0.5883676944
 N          1.4745865429        0.9679114611       -0.0027091887
 O          2.2021032562        1.9002078545       -0.1619919843
 O          0.3008908503        0.9002243928       -0.2462085191
 N          3.6141926277       -0.0509919783        0.6669254118
 O          4.2213499424       -0.3488956390       -0.3185186105
 O          4.0226980131        0.3974041291        1.6918092794
 N          1.8798763297       -1.4499529967       -0.4103943016
 O          2.1104082263       -2.5297850440        0.0364870813
 O          1.5482443626       -1.1429836142       -1.5123526291
 H          1.7124162505       -1.6465369684        2.1826330509
 H          0.4280147781       -0.4520871726        1.9399616185
 H          1.9566276936        0.0330810363        2.6977621307
 C         -4.0234242961       -0.0753193381       -0.8926702583
 C         -2.6417593246        0.1254652044       -0.3128403157
 N         -1.6672080563       -0.8906263171       -0.9274785053
 O         -1.7346632563       -0.9960505083       -2.1092301212
 O         -0.9601266081       -1.4846581480       -0.1641657046
 N         -2.1616074973        1.5550196017       -0.7163526744
 O         -2.1607281417        2.3541697670        0.1652680994
 O         -1.9307201671        1.6950143053       -1.8714388295
 N         -2.6154630214        0.0069376256        1.1923773176
 O         -3.6428285521       -0.3126550643        1.7172147997
 O         -1.5620345913        0.2304326366        1.7204266645
 H         -3.9653789075       -0.0313946291       -1.9797499019
 H         -4.7036053164        0.6963229581       -0.5357998622
 H         -4.4262145263       -1.0424180920       -0.5952476430
