  28
        -77.32145786
 C          1.8973290780       -1.7574024098        0.9391147792
 C          2.2771975129       -0.6608049314       -0.0187455168
 N          1.3094665574       -0.5241468828       -1.1666629196
 O          0.2850539522       -1.1486653655       -1.0853475633
 O          1.6334223259        0.2171655322       -2.0465363958
 N          2.3477927014        0.7284498383        0.6969400161
 O          2.0822737406        0.7172871981        1.8546074510
 O          2.6777897431        1.6314640912       -0.0026613385
 N          3.6687176203       -0.9274289842       -0.5991111916
 O          4.5824308851       -0.4870060253        0.0311036363
 O          3.6930790843       -1.6008985122       -1.5850957457
 H          2.6125058727       -1.8042957955        1.7578324920
 H          1.8717793947       -2.7161929299        0.4238728325
 H          0.9093375417       -1.5651578367        1.3581055694
 C         -2.3410950406        0.5040996880       -1.6614904786
 C         -2.3792880075        0.3821987055       -0.1609765722
 N         -2.0458436474       -1.0530580961        0.3001064828
 O         -1.2754977207       -1.1471043094        1.2080681400
 O         -2.6214642151       -1.9120810446       -0.2867810625
 N         -1.4051088339        1.3371225943        0.5059158858
 O         -1.8678347578        2.1571122582        1.2362515289
 O         -0.2518595075        1.1658968287        0.2179696394
 N         -3.7882986595        0.7018970933        0.3987596641
 O         -4.4160112167        1.5113040317       -0.2075071891
 O         -4.0858470938        0.0987776904        1.3856511784
 H         -1.3160042493        0.5912690017       -2.0166079313
 H         -2.9052248126        1.3810825018       -1.9777954849
 H         -2.7864047435       -0.3841913297       -2.1093623094
