  28
        -77.31967696
 C          1.8046210109        1.6184530509       -1.8700649993
 C          2.2702385463        0.5965220852       -0.8653044519
 N          3.8007103732        0.6704533353       -0.6398333800
 O          4.4419482886        1.1082404218       -1.5413196623
 O          4.1661329900        0.2696732760        0.4248102036
 N          1.6145788111        0.8469133559        0.5042550057
 O          1.7626777020        1.9486760964        0.9259420910
 O          1.0444848250       -0.0772602254        1.0041656975
 N          1.9560887649       -0.8150441557       -1.3259498116
 O          2.8954321326       -1.5128321050       -1.5737434835
 O          0.7929289855       -1.0889772018       -1.4047872880
 H          2.4286812573        1.5794097417       -2.7617147948
 H          1.8755128307        2.6147640884       -1.4347551107
 H          0.7656720987        1.4337756038       -2.1379444288
 C         -1.5325580306       -2.0441497656        0.5891942857
 C         -2.1989685682       -0.6959578861        0.5659038795
 N         -3.7401434258       -0.8133134862        0.5926318495
 O         -4.1803204454       -1.8816187660        0.8856903387
 O         -4.3229121724        0.2002508442        0.3469511184
 N         -1.8403734250        0.1409386483        1.8122288239
 O         -2.0346967839        1.3142428553        1.7108582449
 O         -1.4596677950       -0.4814819354        2.7546252687
 N         -1.8346075284        0.0632284989       -0.6923105562
 O         -2.4610778586       -0.2306912356       -1.6657134883
 O         -0.9252242602        0.8392200768       -0.6151420746
 H         -1.7164451101       -2.5721925883       -0.3443731081
 H         -1.9272135171       -2.6361995141        1.4130658417
 H         -0.4603249843       -1.9242240041        0.7295666977
