  28
        -77.32030723
 C          1.4832523479       -1.9411901503       -0.6560653044
 C          2.2137412619       -0.6265903886       -0.6585997004
 N          1.6770571551        0.3286302268       -1.7566850481
 O          1.5417186172        1.4665839287       -1.4313428380
 O          1.4923631374       -0.1857360969       -2.8135910107
 N          2.1061890588        0.0848615004        0.6746027673
 O          0.9906420387        0.3381570988        1.0362155465
 O          3.1298369336        0.3217627001        1.2435843535
 N          3.7211281757       -0.8143789546       -0.9521841963
 O          4.2100380953       -1.8172154623       -0.5341601475
 O          4.2332978821        0.0728578750       -1.5664933531
 H          2.1104935336       -2.7136198746       -0.2121643825
 H          1.2414637493       -2.2245216710       -1.6801032047
 H          0.5584351502       -1.8660619899       -0.0860226508
 C         -1.7662190068        0.9647794884        2.3413406794
 C         -2.2874488182        0.3953991250        1.0479617177
 N         -2.1945003822       -1.1219141522        1.0267451820
 O         -1.1066550593       -1.5775046363        1.2336942812
 O         -3.2101157729       -1.7131848360        0.8045298071
 N         -3.7715863572        0.7626072017        0.8157935388
 O         -4.4378657739        0.8600476299        1.7983280928
 O         -4.0868031180        0.8995243116       -0.3274921400
 N         -1.4946817612        0.9540143784       -0.1439110565
 O         -1.4692420406        2.1405731176       -0.2091444239
 O         -0.9947104772        0.1498812307       -0.8749703423
 H         -2.4718067901        0.7691907863        3.1476931687
 H         -1.6359162915        2.0416402290        2.2402267687
 H         -0.8014356037        0.5191677342        2.5782785481
