  28
        -77.32400517
 C          1.8927378206       -0.0033785172        1.7476174411
 C          2.3326644416       -0.0043318136        0.3075773906
 N          1.8862400071        1.2798650648       -0.4204269280
 O          2.1927540755        2.2898269920        0.1271757035
 O          1.3108527561        1.1307506896       -1.4566515239
 N          3.8750200530       -0.0566842803        0.1779563851
 O          4.4564471563       -0.6059598013        1.0592438088
 O          4.3112974920        0.4597753539       -0.8073574911
 N          1.7819070410       -1.2011510503       -0.4419092139
 O          2.5792957962       -1.9708584913       -0.8874718186
 O          0.5861831932       -1.2556192218       -0.5077202700
 H          2.5101662390       -0.6926181595        2.3229597294
 H          0.8484817750       -0.3020265192        1.8325493156
 H          2.0021280779        0.9982408001        2.1615973133
 C         -1.8931653509        0.0051359908       -1.7478477457
 C         -2.3327967378        0.0047497234       -0.3077367901
 N         -1.8860515488       -1.2800651262        0.4190336507
 O         -1.3105655896       -1.1316338057        1.4553295115
 O         -2.1924998779       -2.2896117804       -0.1293107906
 N         -1.7819088146        1.2007287118        0.4429371884
 O         -0.5861242167        1.2561576110        0.5069932549
 O         -2.5792622842        1.9687253444        0.8915120904
 N         -3.8751370782        0.0569437519       -0.1777509186
 O         -4.4565246352        0.6086771603       -1.0575427715
 O         -4.3114018743       -0.4619391115        0.8062787408
 H         -2.0024480848       -0.9961464125       -2.1626645131
 H         -0.8489676141        0.3040217229       -1.8327231154
 H         -2.5108319831        0.6947780422       -2.3224482731
