  28
        -41.60371012
 C         -4.1804183529       -0.1934882072        1.3233642902
 C         -4.2195457745       -0.2866040326       -0.1969029845
 C         -3.2734336911        0.7268340289       -0.8475074163
 C         -1.8342337551        0.3879344466       -0.5440919780
 O         -1.1614667498        1.3808029918       -0.0231195399
 O         -1.3536999990       -0.7083182171       -0.7699860854
 H         -4.4563462034        0.8058545025        1.6532839010
 H         -3.1816633472       -0.4128468582        1.6942534265
 H         -4.8729676932       -0.9056357110        1.7653034624
 H         -5.2351100517       -0.0999916005       -0.5502207716
 H         -3.9267739892       -1.2897242166       -0.5118385992
 H         -3.4778891731        1.7373817179       -0.4941316501
 H         -3.3969772630        0.6950965435       -1.9323286094
 H         -0.2072095040        1.1365696470        0.1852116778
 C          4.4240778168        0.7966580021       -0.7392875707
 C          4.1505011621        0.2832165054        0.6689854816
 C          3.2027996013       -0.9146494558        0.6577581788
 C          1.7922931270       -0.5332599483        0.2779699011
 O          1.1314650692       -1.5128783937       -0.2848984171
 O          1.3130187936        0.5642809887        0.4967357415
 H          4.8664639639        0.0152586830       -1.3540484853
 H          5.1095936613        1.6398546183       -0.7087682533
 H          3.4997746403        1.1245857843       -1.2087134111
 H          3.7019876259        1.0792949092        1.2653917382
 H          5.0894360264       -0.0113541633        1.1409836721
 H          3.1439848860       -1.3538743928        1.6577635356
 H          3.5464737360       -1.6904842015       -0.0274764199
 H          0.1799191039       -1.2645012907       -0.5011598476
