  28
        -41.60356932
 C         -4.3516456908       -0.8471888836        0.7606190027
 C         -4.1108267412       -0.3788199729       -0.6691067680
 C         -3.2233077757        0.8650827775       -0.7104241349
 C         -1.8013295368        0.5593097052       -0.3056378359
 O         -1.2419637312        1.5210834602        0.3821295892
 O         -1.2301163682       -0.4721875983       -0.6103518701
 H         -4.8344355776       -0.0660365788        1.3444362174
 H         -3.4095802188       -1.1032551474        1.2399569196
 H         -4.9897325341       -1.7273868750        0.7691568147
 H         -5.0653923806       -0.1506818768       -1.1463238631
 H         -3.6249151037       -1.1738068908       -1.2370874937
 H         -3.6076361516        1.6517035459       -0.0605749963
 H         -3.1806665885        1.2548918594       -1.7311812159
 H         -0.2850051180        1.3201683108        0.6238032663
 C          4.2059819065        0.4662838099       -1.1608630773
 C          4.1194430998       -0.7544553707       -0.2532933886
 C          3.2729505420       -0.4743584477        0.9927381301
 C          1.8348388077       -0.1971076632        0.6292598487
 O          1.2620465994       -1.1739881638       -0.0248964850
 O          1.2666108804        0.8379749513        0.9288000512
 H          4.6376849384        1.3101670134       -0.6270658707
 H          3.2176932360        0.7552346976       -1.5115953347
 H          4.8274974791        0.2518686549       -2.0269094435
 H          5.1224407499       -1.0457427147        0.0641758068
 H          3.6790833665       -1.5903165780       -0.7990077200
 H          3.6626643738        0.3851875759        1.5390287661
 H          3.2860763784       -1.3499870884        1.6448891038
 H          0.3083777004       -0.9665483581       -0.2705533090
