  28
        -41.60357785
 C         -4.4018515539       -0.8431601574       -0.9683662876
 C         -4.2666565453       -0.4587916723        0.4997917589
 C         -3.4028117764        0.7901370613        0.6758608899
 C         -1.9541373434        0.5259182130        0.3428185369
 O         -1.3705638316        1.5310400454       -0.2575016375
 O         -1.3856204324       -0.5131840144        0.6258245851
 H         -3.4261704553       -1.0664683092       -1.3936964475
 H         -4.8487212247       -0.0310600772       -1.5382757309
 H         -5.0302243292       -1.7240655402       -1.0737687845
 H         -3.8088180716       -1.2811114328        1.0519198751
 H         -5.2549541682       -0.2700882765        0.9224788086
 H         -3.4305789429        1.1143414135        1.7197488943
 H         -3.7576992769        1.6118112314        0.0532410360
 H         -0.3992906953        1.3547547609       -0.4555056890
 C          5.4947035593       -0.2405047633        0.3246573497
 C          4.0037636618       -0.0258745359        0.5472635084
 C          3.1981072340       -0.3777900986       -0.7109538052
 C          1.7343880116       -0.1426034067       -0.4426861580
 O          1.1422818449       -1.1566249703        0.1329184390
 O          1.1730797809        0.9046913591       -0.7105264147
 H          5.8544638247        0.3857156208       -0.4884788185
 H          5.6983337461       -1.2792292569        0.0749327778
 H          6.0500624821        0.0120438086        1.2244895115
 H          3.8174324243        1.0176855481        0.8094302463
 H          3.6612435150       -0.6502878409        1.3747626444
 H          3.3508090042       -1.4275303808       -0.9616617695
 H          3.5140112925        0.2548791396       -1.5406693648
 H          0.1753694409       -0.9718492640        0.3449273205
