  28
        -41.60359883
 C         -4.1203683613       -0.4163142326       -1.4949312897
 C         -4.1839458198        0.7164534399       -0.4781101291
 C         -3.4991502119        0.3353589903        0.8393095643
 C         -2.0175869826        0.1297653052        0.6411282390
 O         -1.3914728357        1.2058324134        0.2402670235
 O         -1.4649369495       -0.9371297675        0.8414155658
 H         -4.6015565505       -1.3095032663       -1.1024882283
 H         -3.0879972018       -0.6632037207       -1.7322226356
 H         -4.6243843706       -0.1292250936       -2.4146466523
 H         -5.2269661702        0.9626395107       -0.2704300289
 H         -3.6991342361        1.6060406707       -0.8833713133
 H         -3.9264328937       -0.5833539330        1.2420853015
 H         -3.6293768524        1.1428988407        1.5620409404
 H         -0.4065497647        1.0517801045        0.1051073926
 C          5.4409449121        0.3700713798       -0.6572912818
 C          3.9651074243        0.6344955591       -0.3932264792
 C          3.2087825123       -0.6594312690       -0.1093528041
 C          1.7344843654       -0.4341775241        0.1141171499
 O          1.1094874602       -1.5091466262        0.5244836120
 O          1.1838029089        0.6348975005       -0.0748809786
 H          5.9039485328       -0.1109662326        0.2015509732
 H          5.9644476629        1.3027192537       -0.8507577541
 H          5.5658961010       -0.2785708576       -1.5215686024
 H          3.5149639567        1.1274970880       -1.2561898307
 H          3.8560202252        1.3064662246        0.4597500951
 H          3.6096997395       -1.1656531784        0.7711805168
 H          3.3069287681       -1.3517494181       -0.9498890202
 H          0.1241558918       -1.3538105077        0.6646146998
