  28
        -41.60381278
 C         -4.3577493920       -0.5296123973       -1.0426477677
 C         -4.2112545382       -0.2850272129        0.4541042911
 C         -3.2331361968        0.8537248062        0.7436652446
 C         -1.8118504307        0.4760351809        0.4021442949
 O         -1.1270367883        1.4602597962       -0.1212531104
 O         -1.3486778532       -0.6301515444        0.6133322638
 H         -5.0661730777       -1.3330871549       -1.2284345769
 H         -3.4010172705       -0.8103142607       -1.4770088601
 H         -4.7145213710        0.3672126292       -1.5450553222
 H         -3.8451778274       -1.1917706119        0.9383585471
 H         -5.1836726711       -0.0361465640        0.8824350173
 H         -3.2473672659        1.0899537307        1.8111404736
 H         -3.4955350743        1.7554379442        0.1897684511
 H         -0.1753107328        1.2043448775       -0.3272354119
 C          4.3603889955        0.5496942140        1.0273226280
 C          4.2096945992        0.2848227996       -0.4655456852
 C          3.2327332123       -0.8592675510       -0.7369706483
 C          1.8116069995       -0.4809014985       -0.3955603919
 O          1.1274578917       -1.4643390504        0.1302937289
 O          1.3477159740        0.6244835619       -0.6091932284
 H          3.4046717411        0.8355065178        1.4605313196
 H          5.0686213089        1.3562328738        1.2000972944
 H          4.7194343074       -0.3399330436        1.5407999597
 H          5.1812209317        0.0318371749       -0.8935100520
 H          3.8406346375        1.1844535101       -0.9606637549
 H          3.4988664829       -1.7535461762       -0.1728736187
 H          3.2435731227       -1.1093291962       -1.8013630491
 H          0.1751740671       -1.2089575237        0.3345347924
