  17
        -36.06576274
 O         -0.8088051337        2.1892547109        0.7703189980
 C          0.2530956559        1.4138955874        0.8770469858
 O          1.2164489935        1.7353903167        1.5092826449
 C          0.2042649072        0.0180282923        0.1824442014
 C          1.6090904290       -0.2565802354       -0.3718785478
 Cl         1.9997199095        0.8701618905       -1.6932952231
 C         -0.0958600563       -0.9767886159        1.3110546368
 Cl        -0.0867298554       -2.6628840835        0.7286607519
 C         -0.8031217304       -0.1036553075       -0.9630443480
 Cl        -2.5126782368        0.0379273053       -0.4331432183
 H         -1.5626536880        1.7721959485        0.3078686939
 H          1.6867013204       -1.2676129644       -0.7690171517
 H          2.3498555431       -0.0926863162        0.4111397603
 H         -1.0844398589       -0.7956068352        1.7339652935
 H          0.6605768983       -0.9000475834        2.0917396168
 H         -0.7087867256       -1.0885542134       -1.4218515240
 H         -0.6306518927        0.6667230670       -1.7146077521
