  17
        -36.07335926
 O          0.2105998106        2.2931549150        0.0199905325
 C         -0.1451941978        1.3228508156        0.8445605661
 O         -0.4820813274        1.5021826450        1.9823363302
 C         -0.1329343801       -0.0644412179        0.1812239962
 C          0.8196310268       -0.1180447766       -1.0120273365
 Cl         2.4782870005        0.2935280695       -0.5142585783
 C          0.2651990202       -1.0788193799        1.2597509811
 Cl         0.0960755755       -2.7500815060        0.6820311665
 C         -1.5736801035       -0.3511456913       -0.2736399559
 Cl        -2.1521325189        0.8680455526       -1.4314661430
 H          0.1620323309        3.1582679973        0.4586180473
 H          0.5256578749        0.5996507105       -1.7762545728
 H          0.8466786919       -1.1267057858       -1.4247357500
 H         -0.3688487392       -0.9646461557        2.1386393070
 H          1.3100885105       -0.9390769667        1.5377712937
 H         -2.2470164924       -0.3268738573        0.5839571993
 H         -1.6311127197       -1.3207123266       -0.7676416922
