  17
        -36.06668355
 O         -0.2281090523        2.2303569963       -0.0967422073
 C          0.0457061919        1.0892088248        0.5338030442
 O          0.1672257472        0.9957974604        1.7182121139
 C          0.2229676080       -0.0670332466       -0.4668570989
 C          1.3748434180        0.3044154908       -1.4132784558
 Cl         2.8917765662        0.5404666086       -0.5079083591
 C          0.5827593151       -1.3542591561        0.2830427315
 Cl        -0.8114841797       -2.0719915120        1.1196088364
 C         -1.0574501610       -0.2099167576       -1.3058248477
 Cl        -2.5177924759        0.1640084161       -0.3504861571
 H         -0.3558719389        2.9479738109        0.5440709880
 H          1.1616145815        1.2440421983       -1.9221335881
 H          1.5512614408       -0.4876083648       -2.1410668093
 H          1.3304603760       -1.1421640581        1.0471662348
 H          0.9579905898       -2.1047622459       -0.4128075168
 H         -1.1671062267       -1.2295075400       -1.6731117765
 H         -1.0515073996        0.4938815208       -2.1371677690
