  17
        -36.06528065
 O          1.1413104083        0.9298268609        1.9129634315
 C          0.2362133803        1.2469304088        1.0022424147
 O         -0.1889219782        2.3582016798        0.8866719942
 C         -0.2507974709        0.0841074697        0.0877998640
 C          0.9355933697       -0.4894091390       -0.6961024279
 Cl         1.8866802003        0.8353015182       -1.4307662000
 C         -0.9457478408       -1.0064996030        0.9152810732
 Cl         0.1681140747       -1.9200754346        1.9752070460
 C         -1.2768649214        0.6944705197       -0.8757655875
 Cl        -1.9722240412       -0.5241808584       -1.9667052135
 H          1.2984507388       -0.0291973454        1.9931127289
 H          0.5804303240       -1.1270367094       -1.5060584249
 H          1.6149799137       -1.0520855377       -0.0567492238
 H         -1.4051111045       -1.7382535378        0.2495301067
 H         -1.7067182856       -0.5656062076        1.5606200005
 H         -0.7951957578        1.4513952292       -1.4939799915
 H         -2.0984406616        1.1506425556       -0.3249854235
