  17
        -36.07346784
 O         -1.3830213871        0.8187428213        1.8531053082
 C         -0.3620226422        1.0418739251        1.0292620915
 O          0.3044327227        2.0346573942        1.0490155428
 C         -0.1585652296       -0.1350385120        0.0613459234
 C          1.0272096351        0.1995344566       -0.8447959825
 Cl         1.3407993954       -1.1104782027       -2.0016988306
 C          0.1072319472       -1.3997873651        0.8849843168
 Cl         1.4331075221       -1.1115949419        2.0422609744
 C         -1.4451430085       -0.3248927213       -0.7494060368
 Cl        -1.9297021678        1.2168461865       -1.5034372329
 H         -1.5001376489        1.5685333231        2.4588993618
 H          1.9295844205        0.3397190825       -0.2505931835
 H          0.8227641712        1.1042515478       -1.4165363937
 H          0.4094193726       -2.2232561960        0.2384407291
 H         -0.7704986607       -1.6735141848        1.4688425764
 H         -2.2665348028       -0.6356153291       -0.1052339122
 H         -1.2917302531       -1.0476904756       -1.5502442691
