  17
        -36.06854877
 O          0.4116927295        2.0466325962        0.5531535219
 C         -0.1522202889        0.8911583627        0.8842730471
 O         -0.7662542143        0.7241542641        1.8984701610
 C          0.0383879015       -0.1981281851       -0.1853040525
 C          0.9827499105        0.2506856174       -1.3042996447
 Cl         2.6479218427        0.4607408244       -0.7158750273
 C          0.6053526825       -1.4735829589        0.4628693547
 Cl        -0.5329479286       -2.2555130326        1.5796409291
 C         -1.3502554133       -0.4920420654       -0.7709363753
 Cl        -2.0239500125        0.9496694938       -1.5659271247
 H          0.2563439002        2.7133569636        1.2417358382
 H          0.6663830028        1.2081656105       -1.7154733761
 H          1.0165604046       -0.5017014203       -2.0928348273
 H          1.5037005851       -1.2396380967        1.0339822658
 H          0.8437809061       -2.2043355094       -0.3105661228
 H         -2.0391697906       -0.7699760272        0.0268257197
 H         -1.2989344914       -1.2847970144       -1.5173005058
