  17
        -36.07043593
 O         -0.8493081067        1.5648427004        2.0091154786
 C          0.1292460125        1.5334092260        1.1084864458
 O          1.0445037030        2.3048475771        1.0998848561
 C         -0.0794070199        0.4109442190        0.0756360632
 C          1.1716180548        0.3842691659       -0.8076757502
 Cl         1.1061664358       -0.8819567535       -2.0521267489
 C         -0.2589824166       -0.9090439715        0.8310629143
 Cl         1.0348992599       -1.0978482742        2.0421991770
 C         -1.3576995701        0.7658989370       -0.7001578194
 Cl        -2.0375796783       -0.6134548375       -1.6004028007
 H         -0.6819538677        2.2549694251        2.6718149666
 H          2.0494128407        0.1877411030       -0.1916970890
 H          1.2975571422        1.3402673343       -1.3152000533
 H         -0.1946778930       -1.7541829240        0.1469896689
 H         -1.2074478339       -0.9224351780        1.3661374894
 H         -1.1560237132        1.5541637432       -1.4256605856
 H         -2.1356943919        1.0862253826       -0.0071223335
