  17
        -36.06767864
 O          1.1930051108        1.8589388014        0.8102496971
 C         -0.0248707682        1.3508888556        0.8975333104
 O         -0.8312961579        1.6847183078        1.7203547725
 C         -0.3315778660        0.3070892396       -0.1925876667
 C          0.7562648571        0.2147533607       -1.2654386434
 Cl         2.2701323462       -0.5142742023       -0.6806858202
 C         -0.5722755542       -1.0337461651        0.5213874177
 Cl         0.5522998154       -1.2559487099        1.8860865890
 C         -1.6380805891        0.7727632673       -0.8547684753
 Cl        -2.2842269724       -0.4595861274       -1.9612621768
 H          1.3673354391        2.4730331226        1.5422836394
 H          1.0075908470        1.2071935766       -1.6395944752
 H          0.4015783758       -0.4125975048       -2.0841253857
 H         -0.4291641327       -1.8703780863       -0.1607542225
 H         -1.5750535277       -1.0591707850        0.9466456396
 H         -1.4740098082        1.6765097577       -1.4425121268
 H         -2.3955287146        0.9602292431       -0.0930645594
