  17
        -36.07021555
 O          0.1659235543        2.5867186402        0.7191491322
 C         -0.4610052870        1.4818483613        1.0999647680
 O         -1.3317666359        1.4646362328        1.9233392539
 C          0.0377442860        0.2145783373        0.3784871806
 C          1.2811196970        0.5411371119       -0.4483842861
 Cl         1.9135097794       -0.8875382445       -1.3061696438
 C          0.2974365961       -0.8270652348        1.4788245535
 Cl         0.2476776678       -2.5068683463        0.8950065404
 C         -1.1219566746       -0.2434102659       -0.5167365313
 Cl        -1.6729645914        1.0984215619       -1.5481493898
 H         -0.2144044010        3.3650440214        1.1605714770
 H          2.0822317318        0.9129408915        0.1895613634
 H          1.0407907055        1.2858807677       -1.2065348439
 H         -0.4763898033       -0.7422394209        2.2433516353
 H          1.2801563113       -0.6734378224        1.9250911758
 H         -1.9711238874       -0.5525141062        0.0923744404
 H         -0.8052602985       -1.0533463333       -1.1724525433
