  17
        -36.06917393
 O          0.8673216621        0.8062666058        1.7744653148
 C          0.0382384632        1.0222937078        0.7591973769
 O         -0.5786725904        2.0374079070        0.6131591310
 C         -0.0254598928       -0.1813303615       -0.1962405470
 C          1.4012616362       -0.5834458703       -0.5864285515
 Cl         2.2422549479        0.7750936465       -1.3734905605
 C         -0.7336129269       -1.3626219117        0.4888036270
 Cl         0.2030722785       -2.0557161030        1.8299014082
 C         -0.8078980265        0.2130439044       -1.4563340098
 Cl        -2.5470369153        0.3925281360       -1.1409153507
 H          0.8894650582        1.5730774437        2.3693938995
 H          1.3923302711       -1.4152570836       -1.2909127427
 H          1.9770847846       -0.8469598025        0.2999252275
 H         -0.8944245663       -2.1628319608       -0.2344509673
 H         -1.6921546830       -1.0435044610        0.8974836936
 H         -0.7008642977       -0.5506638990       -2.2263524501
 H         -0.4567498087        1.1750424173       -1.8290703260
