  17
        -36.07348670
 O         -0.0036119596        1.5719930850        1.6440903603
 C         -0.0017792133        1.5193217205        0.3196915571
 O         -0.0023254100        2.4854855700       -0.3886715863
 C         -0.0000283029        0.0843447446       -0.2353380301
 C          1.2471418488       -0.0493315447       -1.1178097546
 Cl         2.7112398114        0.2923516131       -0.1637071002
 C          0.0010509009       -0.9434997022        0.8933548146
 Cl         0.0032249993       -2.6012046032        0.2419862864
 C         -1.2467788349       -0.0524300078       -1.1179677656
 Cl        -2.7115878752        0.2872664701       -0.1643141031
 H         -0.0053137582        2.4946821615        1.9494520352
 H          1.2193462905        0.6794600509       -1.9274906785
 H          1.3396494736       -1.0610214042       -1.5107245860
 H         -0.8917964803       -0.8398220295        1.5083525019
 H          0.8933786564       -0.8376183228        1.5087423705
 H         -1.3372920446       -1.0646641196       -1.5100217478
 H         -1.2202284067        0.6756925836       -1.9283032669
  17
        -36.07346784
 O         -1.3830213871        0.8187428213        1.8531053082
 C         -0.3620226422        1.0418739251        1.0292620915
 O          0.3044327227        2.0346573942        1.0490155428
 C         -0.1585652296       -0.1350385120        0.0613459234
 C          1.0272096351        0.1995344566       -0.8447959825
 Cl         1.3407993954       -1.1104782027       -2.0016988306
 C          0.1072319472       -1.3997873651        0.8849843168
 Cl         1.4331075221       -1.1115949419        2.0422609744
 C         -1.4451430085       -0.3248927213       -0.7494060368
 Cl        -1.9297021678        1.2168461865       -1.5034372329
 H         -1.5001376489        1.5685333231        2.4588993618
 H          1.9295844205        0.3397190825       -0.2505931835
 H          0.8227641712        1.1042515478       -1.4165363937
 H          0.4094193726       -2.2232561960        0.2384407291
 H         -0.7704986607       -1.6735141848        1.4688425764
 H         -2.2665348028       -0.6356153291       -0.1052339122
 H         -1.2917302531       -1.0476904756       -1.5502442691
  17
        -36.07335926
 O          0.2105998106        2.2931549150        0.0199905325
 C         -0.1451941978        1.3228508156        0.8445605661
 O         -0.4820813274        1.5021826450        1.9823363302
 C         -0.1329343801       -0.0644412179        0.1812239962
 C          0.8196310268       -0.1180447766       -1.0120273365
 Cl         2.4782870005        0.2935280695       -0.5142585783
 C          0.2651990202       -1.0788193799        1.2597509811
 Cl         0.0960755755       -2.7500815060        0.6820311665
 C         -1.5736801035       -0.3511456913       -0.2736399559
 Cl        -2.1521325189        0.8680455526       -1.4314661430
 H          0.1620323309        3.1582679973        0.4586180473
 H          0.5256578749        0.5996507105       -1.7762545728
 H          0.8466786919       -1.1267057858       -1.4247357500
 H         -0.3688487392       -0.9646461557        2.1386393070
 H          1.3100885105       -0.9390769667        1.5377712937
 H         -2.2470164924       -0.3268738573        0.5839571993
 H         -1.6311127197       -1.3207123266       -0.7676416922
  17
        -36.07210241
 O         -0.6471432946        1.4357615051        1.9483710915
 C         -0.0977509986        1.3876870963        0.7323839142
 O          0.3202890968        2.3493993160        0.1613162206
 C         -0.1149873086       -0.0404731414        0.1635209166
 C          0.7328640756       -0.0914907799       -1.1088494243
 Cl         2.4408655955        0.2459794330       -0.7504316855
 C          0.4072477877       -1.0093778035        1.2291383194
 Cl         0.2825836970       -2.6987620355        0.6814768876
 C         -1.5774232702       -0.3820234398       -0.1610371023
 Cl        -2.2958414569        0.8343965515       -1.2457726168
 H         -0.6625894154        2.3507412443        2.2740370447
 H          0.4006974224        0.6697495340       -1.8140877318
 H          0.6853650965       -1.0818016483       -1.5601876715
 H         -0.1735216005       -0.9245628730        2.1465188768
 H          1.4616104556       -0.8178127501        1.4293736550
 H         -2.1730373284       -0.3910256194        0.7518959248
 H         -1.6446486794       -1.3471393616       -0.6618058272
  17
        -36.07043593
 O         -0.8493081067        1.5648427004        2.0091154786
 C          0.1292460125        1.5334092260        1.1084864458
 O          1.0445037030        2.3048475771        1.0998848561
 C         -0.0794070199        0.4109442190        0.0756360632
 C          1.1716180548        0.3842691659       -0.8076757502
 Cl         1.1061664358       -0.8819567535       -2.0521267489
 C         -0.2589824166       -0.9090439715        0.8310629143
 Cl         1.0348992599       -1.0978482742        2.0421991770
 C         -1.3576995701        0.7658989370       -0.7001578194
 Cl        -2.0375796783       -0.6134548375       -1.6004028007
 H         -0.6819538677        2.2549694251        2.6718149666
 H          2.0494128407        0.1877411030       -0.1916970890
 H          1.2975571422        1.3402673343       -1.3152000533
 H         -0.1946778930       -1.7541829240        0.1469896689
 H         -1.2074478339       -0.9224351780        1.3661374894
 H         -1.1560237132        1.5541637432       -1.4256605856
 H         -2.1356943919        1.0862253826       -0.0071223335
  17
        -36.07021555
 O          0.1659235543        2.5867186402        0.7191491322
 C         -0.4610052870        1.4818483613        1.0999647680
 O         -1.3317666359        1.4646362328        1.9233392539
 C          0.0377442860        0.2145783373        0.3784871806
 C          1.2811196970        0.5411371119       -0.4483842861
 Cl         1.9135097794       -0.8875382445       -1.3061696438
 C          0.2974365961       -0.8270652348        1.4788245535
 Cl         0.2476776678       -2.5068683463        0.8950065404
 C         -1.1219566746       -0.2434102659       -0.5167365313
 Cl        -1.6729645914        1.0984215619       -1.5481493898
 H         -0.2144044010        3.3650440214        1.1605714770
 H          2.0822317318        0.9129408915        0.1895613634
 H          1.0407907055        1.2858807677       -1.2065348439
 H         -0.4763898033       -0.7422394209        2.2433516353
 H          1.2801563113       -0.6734378224        1.9250911758
 H         -1.9711238874       -0.5525141062        0.0923744404
 H         -0.8052602985       -1.0533463333       -1.1724525433
  17
        -36.06917393
 O          0.8673216621        0.8062666058        1.7744653148
 C          0.0382384632        1.0222937078        0.7591973769
 O         -0.5786725904        2.0374079070        0.6131591310
 C         -0.0254598928       -0.1813303615       -0.1962405470
 C          1.4012616362       -0.5834458703       -0.5864285515
 Cl         2.2422549479        0.7750936465       -1.3734905605
 C         -0.7336129269       -1.3626219117        0.4888036270
 Cl         0.2030722785       -2.0557161030        1.8299014082
 C         -0.8078980265        0.2130439044       -1.4563340098
 Cl        -2.5470369153        0.3925281360       -1.1409153507
 H          0.8894650582        1.5730774437        2.3693938995
 H          1.3923302711       -1.4152570836       -1.2909127427
 H          1.9770847846       -0.8469598025        0.2999252275
 H         -0.8944245663       -2.1628319608       -0.2344509673
 H         -1.6921546830       -1.0435044610        0.8974836936
 H         -0.7008642977       -0.5506638990       -2.2263524501
 H         -0.4567498087        1.1750424173       -1.8290703260
  17
        -36.06910825
 O          0.9293216012        1.6865861488        1.4721584557
 C         -0.1999694894        1.4483718051        0.8124512696
 O         -1.0911792981        2.2434472631        0.7271853148
 C         -0.2317109225        0.0362140478        0.2057711803
 C          0.7815443138       -0.0690809940       -0.9456631897
 Cl         2.4653134404        0.1000406308       -0.4063458261
 C          0.1019113846       -0.9541259955        1.3292394675
 Cl         0.0737530807       -2.6388749606        0.7560267055
 C         -1.6405330661       -0.2509430629       -0.3303010581
 Cl        -2.0233716967        0.7133763009       -1.7726374434
 H          0.9429310037        2.5953342491        1.8151420149
 H          0.5988472505        0.7098182074       -1.6852155148
 H          0.6934033137       -1.0503880879       -1.4127980552
 H         -0.6270604347       -0.8798204113        2.1365220383
 H          1.1049677317       -0.7619426192        1.7092046913
 H         -2.3872869425        0.0035283365        0.4223068839
 H         -1.7298428829       -1.2988964505       -0.6137563301
  17
        -36.06862852
 O         -0.7811341914        1.7887858503        0.9674169753
 C          0.2156011334        0.9150492465        0.8949158625
 O          1.1811066997        0.9525765032        1.6021474660
 C         -0.0107610178       -0.1627649091       -0.1782437600
 C          1.3474435743       -0.4742323083       -0.8181375292
 Cl         1.9347467596        0.9152707564       -1.7601369962
 C         -0.5522893802       -1.4268729065        0.5133501594
 Cl         0.6046442725       -2.1039270462        1.6811268822
 C         -0.9970156561        0.2858057507       -1.2647279118
 Cl        -2.6871661484        0.3022518899       -0.7135154950
 H         -0.6166079784        2.4422701098        1.6665747582
 H          1.2783639669       -1.3242377580       -1.4961630633
 H          2.0872562275       -0.6655962337       -0.0406456447
 H         -0.7535737726       -2.1997602748       -0.2290369493
 H         -1.4664481810       -1.1980682954        1.0607190904
 H         -0.9516422249       -0.4023827282       -2.1093933412
 H         -0.7639990545        1.2952075012       -1.6009183129
  17
        -36.06854877
 O          0.4116927295        2.0466325962        0.5531535219
 C         -0.1522202889        0.8911583627        0.8842730471
 O         -0.7662542143        0.7241542641        1.8984701610
 C          0.0383879015       -0.1981281851       -0.1853040525
 C          0.9827499105        0.2506856174       -1.3042996447
 Cl         2.6479218427        0.4607408244       -0.7158750273
 C          0.6053526825       -1.4735829589        0.4628693547
 Cl        -0.5329479286       -2.2555130326        1.5796409291
 C         -1.3502554133       -0.4920420654       -0.7709363753
 Cl        -2.0239500125        0.9496694938       -1.5659271247
 H          0.2563439002        2.7133569636        1.2417358382
 H          0.6663830028        1.2081656105       -1.7154733761
 H          1.0165604046       -0.5017014203       -2.0928348273
 H          1.5037005851       -1.2396380967        1.0339822658
 H          0.8437809061       -2.2043355094       -0.3105661228
 H         -2.0391697906       -0.7699760272        0.0268257197
 H         -1.2989344914       -1.2847970144       -1.5173005058
  17
        -36.06820148
 O          0.4564880755        2.4097113492        0.2097024168
 C          0.1534724904        1.3209746400        0.9135953280
 O          0.2622245354        1.2472259361        2.1016353037
 C         -0.4195310718        0.2125037488        0.0132952734
 C          0.5258461603       -0.0335207689       -1.1715346314
 Cl         2.2384955059        0.1064242350       -0.6953541609
 C         -0.6778820922       -1.0510537889        0.8398460665
 Cl         0.8219685146       -1.8679035914        1.3331817461
 C         -1.7645430766        0.7482107337       -0.5026935544
 Cl        -2.5042929582       -0.3732060312       -1.6716396797
 H          0.8523442768        3.0870967170        0.7816910855
 H          0.3634007352        0.7114467113       -1.9494143616
 H          0.3832457177       -1.0351668091       -1.5744765364
 H         -1.2565099488       -1.7672209995        0.2569580250
 H         -1.2074528818       -0.7911643040        1.7570058035
 H         -1.6242872534        1.6985492220       -1.0176007223
 H         -2.4727836307        0.8682181752        0.3177228875
  17
        -36.06767864
 O          1.1930051108        1.8589388014        0.8102496971
 C         -0.0248707682        1.3508888556        0.8975333104
 O         -0.8312961579        1.6847183078        1.7203547725
 C         -0.3315778660        0.3070892396       -0.1925876667
 C          0.7562648571        0.2147533607       -1.2654386434
 Cl         2.2701323462       -0.5142742023       -0.6806858202
 C         -0.5722755542       -1.0337461651        0.5213874177
 Cl         0.5522998154       -1.2559487099        1.8860865890
 C         -1.6380805891        0.7727632673       -0.8547684753
 Cl        -2.2842269724       -0.4595861274       -1.9612621768
 H          1.3673354391        2.4730331226        1.5422836394
 H          1.0075908470        1.2071935766       -1.6395944752
 H          0.4015783758       -0.4125975048       -2.0841253857
 H         -0.4291641327       -1.8703780863       -0.1607542225
 H         -1.5750535277       -1.0591707850        0.9466456396
 H         -1.4740098082        1.6765097577       -1.4425121268
 H         -2.3955287146        0.9602292431       -0.0930645594
  17
        -36.06668355
 O         -0.2281090523        2.2303569963       -0.0967422073
 C          0.0457061919        1.0892088248        0.5338030442
 O          0.1672257472        0.9957974604        1.7182121139
 C          0.2229676080       -0.0670332466       -0.4668570989
 C          1.3748434180        0.3044154908       -1.4132784558
 Cl         2.8917765662        0.5404666086       -0.5079083591
 C          0.5827593151       -1.3542591561        0.2830427315
 Cl        -0.8114841797       -2.0719915120        1.1196088364
 C         -1.0574501610       -0.2099167576       -1.3058248477
 Cl        -2.5177924759        0.1640084161       -0.3504861571
 H         -0.3558719389        2.9479738109        0.5440709880
 H          1.1616145815        1.2440421983       -1.9221335881
 H          1.5512614408       -0.4876083648       -2.1410668093
 H          1.3304603760       -1.1421640581        1.0471662348
 H          0.9579905898       -2.1047622459       -0.4128075168
 H         -1.1671062267       -1.2295075400       -1.6731117765
 H         -1.0515073996        0.4938815208       -2.1371677690
  17
        -36.06659583
 O         -0.0342470820        0.9521074356        1.6753596489
 C         -0.0206698167        1.1944550855        0.3759373394
 O          0.1179166534        2.2846572789       -0.1034769675
 C         -0.2296313012       -0.0651448077       -0.4854373682
 C          1.0232199493       -0.2411509005       -1.3614480051
 Cl         2.5146932652        0.1410657945       -0.4623438724
 C         -0.5467004831       -1.3159694825        0.3382756213
 Cl         0.8488368151       -1.9250621253        1.2574572112
 C         -1.4121849633        0.2378021164       -1.4193567203
 Cl        -2.9205812939        0.4352631156       -0.4955769542
 H          0.1223567889        1.7658248078        2.1813718198
 H          0.9954296866        0.4487362960       -2.2043214097
 H          1.1111687022       -1.2681063631       -1.7136172511
 H         -0.8608284222       -2.1215171287       -0.3268639556
 H         -1.3342864626       -1.1067321672        1.0608008390
 H         -1.5704220139       -0.5715889084       -2.1314902486
 H         -1.2393695139        1.1791412360       -1.9419997458
  17
        -36.06576274
 O         -0.8088051337        2.1892547109        0.7703189980
 C          0.2530956559        1.4138955874        0.8770469858
 O          1.2164489935        1.7353903167        1.5092826449
 C          0.2042649072        0.0180282923        0.1824442014
 C          1.6090904290       -0.2565802354       -0.3718785478
 Cl         1.9997199095        0.8701618905       -1.6932952231
 C         -0.0958600563       -0.9767886159        1.3110546368
 Cl        -0.0867298554       -2.6628840835        0.7286607519
 C         -0.8031217304       -0.1036553075       -0.9630443480
 Cl        -2.5126782368        0.0379273053       -0.4331432183
 H         -1.5626536880        1.7721959485        0.3078686939
 H          1.6867013204       -1.2676129644       -0.7690171517
 H          2.3498555431       -0.0926863162        0.4111397603
 H         -1.0844398589       -0.7956068352        1.7339652935
 H          0.6605768983       -0.9000475834        2.0917396168
 H         -0.7087867256       -1.0885542134       -1.4218515240
 H         -0.6306518927        0.6667230670       -1.7146077521
  17
        -36.06528065
 O          1.1413104083        0.9298268609        1.9129634315
 C          0.2362133803        1.2469304088        1.0022424147
 O         -0.1889219782        2.3582016798        0.8866719942
 C         -0.2507974709        0.0841074697        0.0877998640
 C          0.9355933697       -0.4894091390       -0.6961024279
 Cl         1.8866802003        0.8353015182       -1.4307662000
 C         -0.9457478408       -1.0064996030        0.9152810732
 Cl         0.1681140747       -1.9200754346        1.9752070460
 C         -1.2768649214        0.6944705197       -0.8757655875
 Cl        -1.9722240412       -0.5241808584       -1.9667052135
 H          1.2984507388       -0.0291973454        1.9931127289
 H          0.5804303240       -1.1270367094       -1.5060584249
 H          1.6149799137       -1.0520855377       -0.0567492238
 H         -1.4051111045       -1.7382535378        0.2495301067
 H         -1.7067182856       -0.5656062076        1.5606200005
 H         -0.7951957578        1.4513952292       -1.4939799915
 H         -2.0984406616        1.1506425556       -0.3249854235
