%nprocshared=4
%mem=8000mb
%chk=monomer.chk
%nprocshared=4
%mem=8000mb
#T wB97XD/def2svpp opt=tight freq int(grid=ultrafine) scf=(verytight,qc) Volume=tight

Monomer

0 1
 O         -0.0036119596        1.5719930850        1.6440903603
 C         -0.0017792133        1.5193217205        0.3196915571
 O         -0.0023254100        2.4854855700       -0.3886715863
 C         -0.0000283029        0.0843447446       -0.2353380301
 C          1.2471418488       -0.0493315447       -1.1178097546
 Cl         2.7112398114        0.2923516131       -0.1637071002
 C          0.0010509009       -0.9434997022        0.8933548146
 Cl         0.0032249993       -2.6012046032        0.2419862864
 C         -1.2467788349       -0.0524300078       -1.1179677656
 Cl        -2.7115878752        0.2872664701       -0.1643141031
 H         -0.0053137582        2.4946821615        1.9494520352
 H          1.2193462905        0.6794600509       -1.9274906785
 H          1.3396494736       -1.0610214042       -1.5107245860
 H         -0.8917964803       -0.8398220295        1.5083525019
 H          0.8933786564       -0.8376183228        1.5087423705
 H         -1.3372920446       -1.0646641196       -1.5100217478
 H         -1.2202284067        0.6756925836       -1.9283032669


