  30
        -44.10232717
 N          1.5000496489        1.3179681910        0.0987686916
 C          2.4921219237        0.3409856295       -0.3206326144
 C          2.7407898270       -0.7774561360        0.7152702043
 O          1.6061137418       -1.5931616871        0.9098486711
 C          2.0804165194       -0.2664822674       -1.6805124028
 O          0.9537022146       -1.1094117065       -1.6209132221
 H          1.8775280542        1.9181398725        0.8226832325
 H          0.6959666632        0.8424328766        0.5001098427
 H          3.4388551301        0.8686005788       -0.4824907003
 H          2.9860457191       -0.3435803107        1.6899551185
 H          3.5899458867       -1.3919959100        0.3857876876
 H          1.2894443850       -1.8047632321        0.0052438486
 H          2.9042065693       -0.8834837360       -2.0530791401
 H          1.9109014781        0.5544680686       -2.3855222764
 H          0.1413955797       -0.5505965343       -1.5180089473
 N         -1.2857704341        0.4656223709       -1.2869410565
 C         -2.3180681374       -0.0562559614       -0.3934539501
 C         -1.6800954950       -1.0098866783        0.6365478130
 O         -0.7636971264       -0.3393365852        1.4785499208
 C         -3.0787794854        1.0841247304        0.3146432207
 O         -2.1996203663        1.9753239925        0.9459264419
 H         -0.8406978337        1.2625943108       -0.8316547715
 H         -1.7055702311        0.8112221350       -2.1427378112
 H         -3.0273195580       -0.6491819999       -0.9801741025
 H         -1.1915774269       -1.8241891091        0.0959566111
 H         -2.4807085082       -1.4379277062        1.2553668232
 H          0.0768268167       -0.8402986819        1.4980000431
 H         -3.7945288361        0.6558059363        1.0310813376
 H         -3.6359166003        1.6744722071       -0.4195736949
 H         -1.6244036588        1.4455545567        1.5194083109
