  30
        -44.10324103
 N          3.5945648954        0.0959660047        0.9830065655
 C          2.2438935197        0.0374166588        0.4481380079
 C          2.0335390954        1.2410753811       -0.4828117459
 O          0.7104607274        1.3450267620       -0.9486311887
 C          2.0890012120       -1.2789997700       -0.3332983836
 O          0.8432574950       -1.4026231916       -0.9677779444
 H          3.7694204010       -0.6990665878        1.5878128503
 H          3.7216601176        0.9386444513        1.5326026743
 H          1.4628764085        0.0711611660        1.2321077416
 H          2.7340268103        1.1617902535       -1.3239328833
 H          2.2472107427        2.1688432426        0.0563448196
 H          0.4518235043        0.4664348241       -1.2980502889
 H          2.2643170356       -2.1231705435        0.3485475160
 H          2.8472493161       -1.3121292932       -1.1203236484
 H          0.1458957362       -1.4564174504       -0.2800318985
 N         -1.7416117232       -0.0529264496       -1.4519447835
 C         -2.6651984389       -0.0620436395       -0.3315253110
 C         -2.3741304851       -1.2804436318        0.5593110758
 O         -1.0616960510       -1.2841801723        1.0607669876
 C         -2.4838345082        1.2470900114        0.4638896283
 O         -1.1990459669        1.3863824247        1.0129158433
 H         -1.9534153059        0.7026808047       -2.0924332990
 H         -1.7654088802       -0.9289142583       -1.9593701535
 H         -3.7280263725       -0.1215236076       -0.6357021251
 H         -2.4954376536       -2.2041508661       -0.0147793298
 H         -3.0964219655       -1.2911520808        1.3883053427
 H         -0.8970655669       -0.3630257194        1.3547309078
 H         -3.1840205971        1.2589776569        1.3045248894
 H         -2.7167276759        2.0974586325       -0.1910108925
 H         -0.5504140308        1.4702557703        0.2733645375
