  30
        -44.10224014
 N          3.3604010332        0.7892947880        0.8401833231
 C          2.2305621375        0.1686470824        0.1757224963
 C          2.1106659872        0.7589716064       -1.2418403510
 O          0.9706320191        0.3090066930       -1.9326154803
 C          2.3185083518       -1.3699929039        0.1016514269
 O          1.1666040954       -1.9367039140       -0.4771526011
 H          4.2220336600        0.5671824744        0.3522398652
 H          3.4455208511        0.4468962188        1.7908042088
 H          1.3308923200        0.4330037010        0.7450894589
 H          2.9744191139        0.4475342548       -1.8387042385
 H          2.1237759177        1.8525097228       -1.1654521045
 H          0.1675726574        0.6826705430       -1.4864639698
 H          2.4086956625       -1.7960876549        1.1062808991
 H          3.2106949487       -1.6549819178       -0.4772620726
 H          0.9988606584       -1.4183773986       -1.2908358118
 N         -1.1290713159        1.3390716712       -0.4840848547
 C         -2.3565995267        0.5492973457       -0.3822454065
 C         -2.0060793859       -0.9530693996       -0.3587644132
 O         -1.2231280074       -1.3016961835        0.7623075714
 C         -3.1479692836        0.9333576367        0.8854091826
 O         -2.3299167374        0.8812404160        2.0236180741
 H         -0.7284061046        1.3864542714        0.4530226786
 H         -1.3532290768        2.2919701740       -0.7522491149
 H         -2.9713717359        0.7326587825       -1.2687487139
 H         -1.4978436861       -1.2114953162       -1.2908994814
 H         -2.9440584375       -1.5209426181       -0.3096873640
 H         -0.3383817883       -1.5807543003        0.4564777803
 H         -4.0192586174        0.2715885729        0.9896213687
 H         -3.5043908405        1.9658280258        0.8100137748
 H         -1.9193906526       -0.0002981725        2.0295812580
