  30
        -44.10262330
 N          3.5562132255        0.0872163742        1.1625146292
 C          2.2838155971        0.0427699183        0.4677821243
 C          2.1525356547        1.3126435256       -0.3872888584
 O          0.8989009710        1.4167090019       -1.0201167284
 C          2.1114093934       -1.2212100948       -0.4074856883
 O          0.8333702378       -1.3214859563       -0.9894569209
 H          3.6578066443       -0.7163685622        1.7721626364
 H          4.3232253475        0.0741234417        0.4983158155
 H          1.4940574999        0.0516587596        1.2291311946
 H          2.9557341080        1.3247334626       -1.1383585227
 H          2.2620465981        2.1916297536        0.2503733573
 H          0.7489266500        0.5702203544       -1.4762858228
 H          2.3279007052       -2.1115010695        0.1999164744
 H          2.8240506904       -1.1932051755       -1.2397983234
 H          0.1785310205       -1.4727632202       -0.2716844116
 N         -2.1798298316       -0.1505361011       -1.5537212473
 C         -2.7852045691       -0.0895306710       -0.2351333517
 C         -2.4187898016       -1.2771174070        0.6833455393
 O         -1.0473974728       -1.3028515344        1.0155053616
 C         -2.4306057463        1.2540207009        0.4395760827
 O         -1.1023672090        1.3416135379        0.9046905590
 H         -2.5596863743       -0.9272488598       -2.0824363487
 H         -1.1795948223       -0.3018062597       -1.4804202293
 H         -3.8724871230       -0.0978287824       -0.3734269578
 H         -2.6366960711       -2.2242916955        0.1800398478
 H         -3.0224793895       -1.2234830379        1.5994622379
 H         -0.8429357507       -0.3857964351        1.3003825196
 H         -3.0641401453        1.3806750116        1.3227862999
 H         -2.6472047010        2.0596622884       -0.2685932993
 H         -0.4955371908        1.4975430216        0.1508562322
