  30
        -44.10344888
 N          1.3927886086       -1.2212516626        0.1786052565
 C          2.4596046835       -0.3344725859       -0.2698666296
 C          2.1879358337        0.1081208098       -1.7263699928
 O          1.1102180513        0.9954285441       -1.8732702185
 C          2.5554191443        0.8857465026        0.6587732718
 O          1.3786949783        1.6478481289        0.6881266637
 H          1.4141794340       -1.3370511975        1.1856625525
 H          1.4872492245       -2.1374872522       -0.2450975956
 H          3.4483003859       -0.8283581068       -0.2604400470
 H          2.0395619136       -0.7881038881       -2.3440048270
 H          3.0707719518        0.6371582422       -2.0983380139
 H          0.2610950556        0.5154427343       -1.6818989377
 H          3.4021380838        1.5055043958        0.3305228692
 H          2.7464570607        0.5619292155        1.6869445940
 H          1.1388900659        1.7906021934       -0.2516132898
 N         -1.0874264886       -0.4573038004       -1.1493579434
 C         -2.2749350466       -0.0749506170       -0.3935719524
 C         -2.8766799358       -1.2852888890        0.3527645431
 O         -1.9148834858       -1.9259214947        1.1485800316
 C         -1.9179707393        1.0409181025        0.6096439159
 O         -1.0215216510        0.6174164905        1.6114481724
 H         -1.3450551552       -1.1316360592       -1.8630987709
 H         -0.4438032419       -0.9280711543       -0.5026069893
 H         -3.0220881569        0.3261211832       -1.0879696367
 H         -3.2327247634       -2.0318389607       -0.3651767812
 H         -3.7329463128       -0.9526068583        0.9580550306
 H         -1.4923305329       -1.2220626477        1.6736115095
 H         -2.8387471392        1.3530967819        1.1149658266
 H         -1.5168009665        1.8986414410        0.0618054525
 H         -0.1136486211        0.8546970018        1.3390483476
