  30
        -44.10090901
 N          1.3347507893       -1.2153835603       -0.4696690200
 C          2.3832949102       -0.3748794199        0.0914336055
 C          3.1360328160        0.2512804592       -1.0976440754
 O          2.2406169324        0.8963905677       -1.9721848752
 C          1.7622636119        0.7220763256        0.9697377580
 O          0.8028463455        1.4977269946        0.2947077483
 H          0.6557376399       -1.4821421290        0.2427916099
 H          1.7305849562       -2.0650900249       -0.8564792190
 H          3.1085501573       -0.9244401898        0.7167489858
 H          3.6913201499       -0.5327097350       -1.6324008191
 H          3.8465997018        1.0063200866       -0.7551405613
 H          1.5280009469        0.2611600791       -2.1456767176
 H          2.5702034240        1.3626731163        1.3519980581
 H          1.2502319722        0.2680328995        1.8229223439
 H          1.1752064818        1.7307786184       -0.5739901070
 N         -1.4733223579       -0.0830080095       -1.3002992678
 C         -2.5165059665       -0.4149156457       -0.3460836922
 C         -2.2249570508       -1.6824077951        0.4899577674
 O         -1.0580966728       -1.5649177673        1.2693742966
 C         -2.7634847807        0.7961357396        0.5744042458
 O         -1.7187466371        1.0408913955        1.4883910225
 H         -1.3333254976       -0.8548464562       -1.9430468855
 H         -0.5936024393        0.0578344587       -0.8099030132
 H         -3.4408757008       -0.5931263401       -0.9094457527
 H         -2.0701874669       -2.5397584240       -0.1732587077
 H         -3.0913058362       -1.8945798929        1.1330763950
 H         -1.1396280490       -0.7069916161        1.7299894579
 H         -3.6539111028        0.6110389099        1.1819399303
 H         -2.9411660547        1.6762421973       -0.0537286484
 H         -0.9373332574        1.3515203651        0.9972317328
