  30
        -44.10144451
 N          3.9953059196        0.0341417757        0.3228179537
 C          2.6622725168       -0.1597922245       -0.2244525790
 C          1.7055266919       -0.5286607436        0.9191757253
 O          0.6461606280       -1.3589773802        0.5089091177
 C          2.1625325489        1.0801658139       -1.0036266531
 O          0.8590755853        0.9433522015       -1.5043359788
 H          3.9956590649        0.8215999485        0.9638445544
 H          4.6535546690        0.2431248055       -0.4200347484
 H          2.7084094140       -1.0150008360       -0.9087927935
 H          1.3193929023        0.3878995023        1.3913424795
 H          2.2650600304       -1.0951017155        1.6676881068
 H          0.2160445203       -0.9811138359       -0.2889264917
 H          2.8147414318        1.2390984601       -1.8706210848
 H          2.2405182761        1.9626479558       -0.3512674110
 H          0.2220869537        1.1566842640       -0.7951455529
 N         -1.4597710046       -0.8280225062       -1.2340351718
 C         -2.5849104627       -0.2305699603       -0.5290204895
 C         -2.7882924286       -0.9698576556        0.8108794954
 O         -1.7437340033       -0.7757074836        1.7286984888
 C         -2.3078568506        1.2627903346       -0.2904993261
 O         -1.1146509249        1.4877568718        0.4169573108
 H         -1.1996178542       -0.2820342838       -2.0475275655
 H         -1.6778716990       -1.7725640551       -1.5284476221
 H         -3.5335270359       -0.3032028708       -1.0918526827
 H         -2.9308154149       -2.0398647766        0.6077311878
 H         -3.6927020574       -0.5886597514        1.2937818834
 H         -0.9238242393       -1.1855815896        1.3728491622
 H         -3.1600168387        1.6960558255        0.2513065581
 H         -2.2060354544        1.7822156227       -1.2479332009
 H         -1.1542311162        0.8896998275        1.1905082856
