  30
        -44.10143348
 N          3.0345837771       -0.0911409210        1.6174732981
 C          2.0551058138       -0.1301094062        0.5483509641
 C          1.9047809947        1.2158631394       -0.1939814749
 O          0.9038411842        1.1884975514       -1.1843967564
 C          2.4486322595       -1.2431164059       -0.4369303503
 O          1.4947107508       -1.4351135656       -1.4545401409
 H          2.7771753142        0.6004582753        2.3127538886
 H          3.9471028395        0.1599266942        1.2512324653
 H          1.0913765659       -0.3985742948        0.9975801093
 H          2.8735090223        1.4837640988       -0.6453464098
 H          1.6276778924        2.0073095144        0.5116305922
 H          1.0520276543        0.3664916862       -1.6923664785
 H          2.6154995576       -2.1660351660        0.1311511398
 H          3.3819947251       -0.9774749051       -0.9434869243
 H          0.6477422245       -1.6926336466       -1.0450375845
 N         -2.4772656928        0.6742916170        2.1922341388
 C         -1.8587207911        0.4012880682        0.9086700532
 C         -1.8503423998       -1.1185934469        0.6824455432
 O         -1.1386027899       -1.4992272223       -0.4700639673
 C         -2.5459320095        1.1195771251       -0.2737108644
 O         -1.8879791000        0.9064257817       -1.4994191963
 H         -3.4339114589        0.3357134981        2.2008990707
 H         -2.5012988201        1.6726282124        2.3694792385
 H         -0.8229102888        0.7576783499        0.9624184145
 H         -2.8899958263       -1.4735681134        0.6185807999
 H         -1.3731792257       -1.6105905544        1.5335122500
 H         -1.4517624883       -0.9216912542       -1.1915569486
 H         -2.6117357975        2.1958793443       -0.0516281541
 H         -3.5634282805        0.7348563988       -0.4042169753
 H         -0.9710626207        1.2282290540       -1.4201951490
