  30
        -44.10258604
 N          3.5332453921        0.0950585899        1.1718721983
 C          2.2643786764        0.0941772088        0.4703314372
 C          2.0809936353        1.3053107927       -0.4698953426
 O          0.8168674048        1.3113596326       -1.0948019469
 C          2.1487479826       -1.2197634213       -0.3245742651
 O          0.8915123879       -1.3813346762       -0.9397129853
 H          3.6217615556        0.9251507000        1.7468601311
 H          4.3034817550        0.0892910845        0.5112544300
 H          1.4710757933        0.1179761750        1.2277954493
 H          2.8747053859        1.2955974178       -1.2325145743
 H          2.1554216779        2.2394244320        0.0955713253
 H          0.6960226200        0.4071839842       -1.4468017179
 H          2.3717740268       -2.0544483971        0.3478020384
 H          2.8857859489       -1.2231026531       -1.1345207324
 H          0.2193688314       -1.5604499215       -0.2460736509
 N         -2.1622753571       -0.1395376121       -1.5530060785
 C         -2.7656688261       -0.0224136228       -0.2392355891
 C         -2.4539271570       -1.2849671928        0.5788038120
 O         -1.0995320849       -1.3720903329        0.9645502692
 C         -2.3755047519        1.2552718655        0.5478170661
 O         -1.0278566338        1.2968989442        0.9612035765
 H         -1.2185984360       -0.5025876564       -1.4942084514
 H         -2.1386911794        0.7539455331       -2.0299090457
 H         -3.8539771602        0.0240258648       -0.3840012491
 H         -2.6658930338       -2.1692978412       -0.0257241693
 H         -3.0944180779       -1.3015507485        1.4707826270
 H         -0.8730011261       -0.4917842987        1.3268934973
 H         -2.9711543902        1.3026385322        1.4642664579
 H         -2.6156892544        2.1356594684       -0.0632702448
 H         -0.4486560605        1.4140435765        0.1767204969
