  30
        -44.10479622
 N          3.5559599647        0.0536516426        1.0686108672
 C          2.2530554841        0.0478650224        0.4283442833
 C          2.0270759687        1.2490530843       -0.5136544200
 O          0.6999399852        1.3461741186       -0.9694787147
 C          2.0970824487       -1.2731219032       -0.3445850201
 O          0.8436633342       -1.4045911471       -0.9642613330
 H          3.6738799240        0.8938004017        1.6240299903
 H          4.2912233849        0.0379720848        0.3691939506
 H          1.4970880408        0.0832498125        1.2225390917
 H          2.7157284451        1.1707572831       -1.3694113556
 H          2.2418783440        2.1839050363        0.0158099807
 H          0.4346692903        0.4602344609       -1.2957871432
 H          2.2918161698       -2.1036732756        0.3443879040
 H          2.8399961814       -1.3127924177       -1.1482946152
 H          0.1571162000       -1.4703853879       -0.2669716273
 N         -1.7509453047       -0.0555962522       -1.4398184926
 C         -2.6678284387       -0.0675166846       -0.3135478647
 C         -2.3694770151       -1.2860221122        0.5746916717
 O         -1.0536385380       -1.2911760814        1.0657805665
 C         -2.4843611208        1.2414706527        0.4814219301
 O         -1.1946225239        1.3859321308        1.0169097653
 H         -1.9747667564        0.6940999349       -2.0832321252
 H         -1.7699029493       -0.9348472858       -1.9418307460
 H         -3.7321151999       -0.1287536761       -0.6119457103
 H         -2.4952786136       -2.2093287375        0.0009435710
 H         -3.0860743459       -1.2970587462        1.4085821661
 H         -0.8863253177       -0.3748292596        1.3699298605
 H         -3.1755741187        1.2492756530        1.3293865997
 H         -2.7283178849        2.0915549040       -0.1700987123
 H         -0.5551625295        1.4689219169        0.2709228344
