  30
        -44.10367324
 N          1.3853089514        0.1791954022        0.9116833279
 C          2.2277375410        0.9670719288        0.0110738980
 C          3.4162130907        0.1285441580       -0.5022474747
 O          2.9706862613       -1.0721661557       -1.0757912447
 C          1.3803240079        1.4669252235       -1.1771003225
 O          0.8482919717        0.4323644474       -1.9633521762
 H          1.8286884110        0.0987075291        1.8207779778
 H          1.3353410553       -0.7630964195        0.5255852656
 H          2.6009708318        1.8446261149        0.5473664286
 H          4.0702705548       -0.1506423178        0.3301243285
 H          4.0016523156        0.7198216820       -1.2203725895
 H          2.3071929552       -0.8275976879       -1.7464428628
 H          2.0193646804        2.0606097938       -1.8378391442
 H          0.5866425343        2.1201236303       -0.7937136290
 H          0.1120415651       -0.0083390865       -1.4728763390
 N         -1.1821595856       -0.9648285142       -0.6652036970
 C         -2.3991502680       -0.2819938955       -0.2246823188
 C         -3.1622415944       -1.1337368296        0.8102817720
 O         -2.3230875607       -1.4996207262        1.8737816581
 C         -2.0271821107        1.0850121176        0.3858642990
 O         -1.2094534870        0.9893797631        1.5233061080
 H         -1.4159459298       -1.7042416750       -1.3195192199
 H         -0.7793587063       -1.4162423524        0.1554057952
 H         -3.0390079017       -0.0970294900       -1.0926591274
 H         -3.5061881677       -2.0670668503        0.3528710092
 H         -4.0406403684       -0.5787372085        1.1687338143
 H         -1.9313328461       -0.6740025720        2.2124572583
 H         -2.9452688355        1.5871393657        0.7058772909
 H         -1.5549245880        1.7006015326       -0.3897382645
 H         -0.2948751064        0.7327025960        1.2504355418
