  30
        -44.10223350
 N          3.4341725663       -0.6257187324        0.8567024890
 C          2.2659474529       -0.0994660752        0.1771346691
 C          2.2782613213        1.4348151400        0.0144013533
 O          1.0971313914        1.9126857626       -0.5847127240
 C          2.1550771793       -0.7766226123       -1.2017212917
 O          0.9862658220       -0.4214924541       -1.8995147912
 H          3.5167144774       -0.2244028022        1.7842270900
 H          4.2766766222       -0.3917583646        0.3416157119
 H          1.3884402284       -0.3739006524        0.7755464833
 H          3.1519605447        1.7279877147       -0.5883028359
 H          2.3551265821        1.9216120001        0.9922156480
 H          0.9466168117        1.3391838942       -1.3640015934
 H          2.2206838404       -1.8620923888       -1.0620164533
 H          2.9951095149       -0.4613472860       -1.8295977749
 H          0.2057036604       -0.7909599662       -1.4115763302
 N         -1.0623714570       -1.3953675465       -0.3426123570
 C         -2.3280325649       -0.6611982014       -0.3399810175
 C         -3.1345899122       -0.9691585334        0.9388419363
 O         -2.3526631658       -0.7709172635        2.0863276017
 C         -2.0493955893        0.8529993791       -0.4434565860
 O         -1.3106206804        1.3387075333        0.6561968775
 H         -1.2363345009       -2.3807371359       -0.5134136381
 H         -0.6783403813       -1.3264293330        0.6000570460
 H         -2.9090556641       -0.9534576334       -1.2200139453
 H         -3.4369195566       -2.0214123981        0.9508238179
 H         -4.0404957645       -0.3471501229        0.9609735656
 H         -1.9856716703        0.1273658947        2.0199507891
 H         -3.0139056822        1.3759653212       -0.4605352170
 H         -1.5338787040        1.0544497943       -1.3856298058
 H         -0.4188218630        1.5950436799        0.3515081115
