  38
        -64.18997249
 C         -3.3223513063       -1.1619304553        1.2835199061
 C         -2.5796440602       -0.3211794003        0.2485903269
 C         -3.3815682647       -0.2855820465       -1.0726687176
 O         -2.7906040139        0.5039017344       -2.0761111908
 C         -2.4064808821        1.1170562477        0.8010954773
 O         -1.7950203371        2.0159876988       -0.0933570009
 C         -1.1863526065       -0.8801939745       -0.0191599610
 O         -0.7273033792       -1.6641806545        0.9105156576
 O         -0.5628968296       -0.5908229406       -1.0291688540
 H         -3.4325512142       -2.1848021304        0.9325126996
 H         -4.3107782191       -0.7455724139        1.4626207803
 H         -2.7705438601       -1.1775716310        2.2186065802
 H         -4.3675373755        0.1493406983       -0.8847757361
 H         -3.5217982293       -1.3153215796       -1.4310273970
 H         -1.8878380834        0.1615054256       -2.2068616363
 H         -1.7778601499        1.0915088964        1.6951853871
 H         -3.4023128523        1.4925830361        1.0748973624
 H         -2.2036705618        1.8710630693       -0.9696175024
 H          0.2462077364       -1.8846669006        0.7750461910
 C          3.6675192914        1.2511571893        1.0138947751
 C          2.6605153038        0.3110138196        0.3414273476
 C          2.9717054229        0.2129718720       -1.1652023388
 O          2.1510702398       -0.6991397782       -1.8574397611
 C          2.7358319577       -1.0791358519        1.0028441585
 O          1.8667497916       -2.0297081592        0.4247032867
 C          1.2736897263        0.9109257472        0.5906492008
 O          0.8595949527        1.7037909438       -0.3784161202
 O          0.6396856972        0.6945162372        1.5935498403
 H          3.6257833461        2.2356534209        0.5539646730
 H          4.6764695276        0.8587874565        0.9094690628
 H          3.4369186655        1.3491730165        2.0719912478
 H          3.9938552556       -0.1560324583       -1.2936511620
 H          2.9022844856        1.2105957699       -1.6140450086
 H          1.2245365821       -0.4087959550       -1.7919783908
 H          2.4526081554       -0.9996027327        2.0552451830
 H          3.7696298231       -1.4438319421        0.9382479708
 H          1.9681955448       -1.9394306636       -0.5469237814
 H         -0.0856026223        1.9826300380       -0.2214277521
