  38
        -64.18326705
 C         -3.2039865587       -0.6392234588        1.5011530461
 C         -2.6374999941       -0.2133457389        0.1506825218
 C         -3.4926795466       -0.7957337569       -1.0045470571
 O         -3.0899771042       -0.3625230687       -2.2692821536
 C         -2.6238461031        1.3299648736        0.0217376312
 O         -1.5669670265        1.9444186043        0.7307820144
 C         -1.2269608127       -0.7446677435       -0.0558079772
 O         -0.7742715909       -1.4899493129        0.9172472920
 O         -0.5867556141       -0.5015281397       -1.0652366692
 H         -2.6250280295       -0.1936113710        2.3057197151
 H         -3.1709211661       -1.7199048446        1.6094663757
 H         -4.2363108496       -0.3088682858        1.5872596169
 H         -4.5288140353       -0.4683987414       -0.8833788080
 H         -3.4655122507       -1.8949915711       -0.9385271243
 H         -2.1250782341       -0.4550480620       -2.3288657814
 H         -3.5579695991        1.7142056663        0.4424949883
 H         -2.5830013375        1.5970432442       -1.0372790575
 H         -0.8496290309        2.1522844714        0.1026546442
 H          0.1820569263       -1.7634479442        0.7700570356
 C          3.7655547243        1.2046296405        0.9754883445
 C          2.7079998670        0.3166800455        0.3072239032
 C          3.0136045192        0.1909083849       -1.2021257382
 O          2.1528518446       -0.6943037792       -1.8774174264
 C          2.7079256772       -1.0707953642        0.9769047967
 O          1.7877885404       -1.9776706987        0.4128822903
 C          1.3755401842        1.0393771457        0.4773533880
 O          0.7624643724        0.7751938768        1.6152895318
 O          0.9441727356        1.8176191059       -0.3428420225
 H          3.7711093170        2.1908611378        0.5174215218
 H          4.7515442141        0.7611636669        0.8604731029
 H          3.5508938829        1.3110983877        2.0360878366
 H          4.0201594426       -0.2153788446       -1.3332319132
 H          2.9739843320        1.1886650693       -1.6545364840
 H          1.2441700846       -0.3474028350       -1.8523250382
 H          2.4489666364       -0.9792367716        2.0342562955
 H          3.7221657098       -1.4854933863        0.8978539398
 H          1.8880268290       -1.9041253898       -0.5609184648
 H         -0.1221796316        1.2167341171        1.6476850428
