  38
        -64.19277323
 C         -3.5697185199       -1.5412134730        0.4078052264
 C         -2.6009832057       -0.3997615281        0.0803003249
 C         -2.9222427330        0.1738071111       -1.3162372120
 O         -2.1800135799        1.3241890430       -1.6411629093
 C         -2.7218459166        0.6986216615        1.1560853822
 O         -1.8543227170        1.7919756249        0.9535575209
 C         -1.1931687128       -0.9946779857        0.0727246787
 O         -0.7320814081       -1.2513674416        1.2746969234
 O         -0.5778336980       -1.2185933801       -0.9457889658
 H         -3.3245669371       -1.9728910448        1.3749130431
 H         -3.5041550251       -2.3185582480       -0.3500280471
 H         -4.5910092562       -1.1688418423        0.4373080553
 H         -3.9715555295        0.4807261289       -1.3445459400
 H         -2.7654783707       -0.6112226130       -2.0657794407
 H         -1.2381562521        1.0925756386       -1.7208166890
 H         -2.4808281052        0.2861819025        2.1385681599
 H         -3.7610341795        1.0545707614        1.1673731196
 H         -1.9486441568        2.0440499235        0.0092469190
 H          0.2246881587       -1.5559186814        1.2432763668
 C          3.5698178527        1.5397329307        0.4121178503
 C          2.6008974962        0.3992809559        0.0815967373
 C          2.9226465737       -0.1710442489       -1.3161440438
 O          2.1802369403       -1.3203680046       -1.6442895797
 C          2.7211920159       -0.7016408650        1.1548382433
 O          1.8535924729       -1.7944024938        0.9494180890
 C          1.1933946645        0.9949431559        0.0748512412
 O          0.7310314335        1.2463858028        1.2775238872
 O          0.5794441809        1.2240616012       -0.9432874035
 H          3.5044587582        2.3189696543       -0.3437870128
 H          4.5910491803        1.1671274812        0.4408155816
 H          3.3246327599        1.9690721873        1.3802629038
 H          3.9718774474       -0.4782731362       -1.3445757367
 H          2.7665989834        0.6158617704       -2.0638690922
 H          1.2383436762       -1.0884310163       -1.7228248449
 H          2.4798842883       -0.2915460375        2.1382237096
 H          3.7603139486       -1.0577865660        1.1656473981
 H          1.9481999563       -2.0442716760        0.0045991847
 H         -0.2253456340        1.5520154728        1.2465856148
  38
        -64.18997249
 C         -3.3223513063       -1.1619304553        1.2835199061
 C         -2.5796440602       -0.3211794003        0.2485903269
 C         -3.3815682647       -0.2855820465       -1.0726687176
 O         -2.7906040139        0.5039017344       -2.0761111908
 C         -2.4064808821        1.1170562477        0.8010954773
 O         -1.7950203371        2.0159876988       -0.0933570009
 C         -1.1863526065       -0.8801939745       -0.0191599610
 O         -0.7273033792       -1.6641806545        0.9105156576
 O         -0.5628968296       -0.5908229406       -1.0291688540
 H         -3.4325512142       -2.1848021304        0.9325126996
 H         -4.3107782191       -0.7455724139        1.4626207803
 H         -2.7705438601       -1.1775716310        2.2186065802
 H         -4.3675373755        0.1493406983       -0.8847757361
 H         -3.5217982293       -1.3153215796       -1.4310273970
 H         -1.8878380834        0.1615054256       -2.2068616363
 H         -1.7778601499        1.0915088964        1.6951853871
 H         -3.4023128523        1.4925830361        1.0748973624
 H         -2.2036705618        1.8710630693       -0.9696175024
 H          0.2462077364       -1.8846669006        0.7750461910
 C          3.6675192914        1.2511571893        1.0138947751
 C          2.6605153038        0.3110138196        0.3414273476
 C          2.9717054229        0.2129718720       -1.1652023388
 O          2.1510702398       -0.6991397782       -1.8574397611
 C          2.7358319577       -1.0791358519        1.0028441585
 O          1.8667497916       -2.0297081592        0.4247032867
 C          1.2736897263        0.9109257472        0.5906492008
 O          0.8595949527        1.7037909438       -0.3784161202
 O          0.6396856972        0.6945162372        1.5935498403
 H          3.6257833461        2.2356534209        0.5539646730
 H          4.6764695276        0.8587874565        0.9094690628
 H          3.4369186655        1.3491730165        2.0719912478
 H          3.9938552556       -0.1560324583       -1.2936511620
 H          2.9022844856        1.2105957699       -1.6140450086
 H          1.2245365821       -0.4087959550       -1.7919783908
 H          2.4526081554       -0.9996027327        2.0552451830
 H          3.7696298231       -1.4438319421        0.9382479708
 H          1.9681955448       -1.9394306636       -0.5469237814
 H         -0.0856026223        1.9826300380       -0.2214277521
  38
        -64.18765303
 C         -3.7098720764       -1.4963390411       -0.3749012271
 C         -2.6976404779       -0.3535019867       -0.2454234937
 C         -3.0341656921        0.7607723640       -1.2587610005
 O         -2.2452689246        1.9166713931       -1.1085542379
 C         -2.7287796943        0.2002132441        1.1921723520
 O         -1.7953443206        1.2342442947        1.4202627243
 C         -1.3193324044       -0.9332549145       -0.5722134321
 O         -0.8222029208       -1.6544337659        0.4146579884
 O         -0.7599129534       -0.7614110959       -1.6264401110
 H         -3.4553675035       -2.3004743058        0.3110045462
 H         -3.7057433443       -1.8871380605       -1.3897502514
 H         -4.7106594939       -1.1393856113       -0.1427614837
 H         -4.0675444990        1.0849521613       -1.1056029805
 H         -2.9381317016        0.3567347405       -2.2732778831
 H         -1.3245695338        1.7158765175       -1.3497689962
 H         -2.4964230741       -0.5944810182        1.9048429739
 H         -3.7412705845        0.5734191828        1.3970071995
 H         -1.8931034205        1.8569825591        0.6657699459
 H          0.1132314885       -1.9398272939        0.2159176382
 C          3.2195215905        1.2667477221       -1.2286080162
 C          2.5705618607        0.3447828666       -0.1957041797
 C          2.3620140599       -1.0495713502       -0.8390825787
 O          1.8060979790       -2.0092860362        0.0289094115
 C          3.4877159864        0.2321068131        1.0405347127
 O          3.0643975736       -0.6990182702        2.0096080067
 C          1.1895813694        0.8957386514        0.1538541545
 O          0.7574648244        0.5449462926        1.3547597814
 O          0.5340206472        1.5622392005       -0.6084455743
 H          2.5434068004        1.4087252720       -2.0669731605
 H          4.1505484636        0.8385751437       -1.5902602045
 H          3.4272049113        2.2391927969       -0.7885834930
 H          3.3362612256       -1.4035520413       -1.2025763302
 H          1.6776056508       -0.9623078401       -1.6873243351
 H          2.3000886437       -1.9495290927        0.8697785169
 H          3.6040523906        1.2267608350        1.4909922901
 H          4.4727996965       -0.1128692205        0.7134375733
 H          2.2209517901       -0.3847901822        2.3680121994
 H         -0.2035818165        0.8234490853        1.4855006904
  38
        -64.18442285
 C         -3.7707639391       -1.4191496263       -0.5106314569
 C         -2.7134334172       -0.3323199916       -0.2845925561
 C         -2.9779187210        0.8548260486       -1.2351554036
 O         -2.1841293659        1.9845703588       -0.9684810501
 C         -2.7606425802        0.1296741454        1.1859765100
 O         -1.7781555738        1.0881352188        1.5109569217
 C         -1.3586447818       -0.9602685758       -0.6054009178
 O         -0.9250835986       -1.7574833959        0.3519073158
 O         -0.7538651149       -0.7712227514       -1.6345382763
 H         -4.7596809168       -1.0335798137       -0.2742513059
 H         -3.5673229917       -2.2773804068        0.1249158556
 H         -3.7613555919       -1.7414175559       -1.5493123209
 H         -4.0132812730        1.1851957557       -1.1120161148
 H         -2.8368964406        0.5169586033       -2.2687707036
 H         -1.2550264796        1.7878332248       -1.1793775558
 H         -2.5969880547       -0.7216898762        1.8503648428
 H         -3.7572114024        0.5465587993        1.3836303189
 H         -1.8377920097        1.7806963797        0.8177730446
 H         -0.0072832596       -2.0760235928        0.1342364997
 C          2.8546270955        0.5913445299       -1.5857673794
 C          2.5518866722        0.1840252087       -0.1435740895
 C          2.6176685498       -1.3452046581        0.0277706310
 O          1.5589246384       -2.0494733388       -0.5822608815
 C          3.5825099195        0.8315225585        0.8164639274
 O          3.4903370184        0.3829784235        2.1357562039
 C          1.1745388408        0.7157821434        0.2407435421
 O          0.7647180286        0.3093013794        1.4302253142
 O          0.5309036893        1.4605390770       -0.4587842828
 H          2.0669472070        0.2479137439       -2.2537782374
 H          3.8070992027        0.1768264352       -1.9063804379
 H          2.8969061703        1.6745354258       -1.6648729117
 H          2.5773506078       -1.6037752314        1.0883680709
 H          3.5769115931       -1.6939710008       -0.3777282839
 H          1.3831365828       -1.6801460231       -1.4607129269
 H          3.4699350186        1.9253755077        0.7618604215
 H          4.5903439500        0.5722877044        0.4815521225
 H          2.5721070724        0.4665320486        2.4302913626
 H         -0.1820919762        0.6061992514        1.5984892232
  38
        -64.18431007
 C         -3.5017981995       -0.9724683995        1.0382217209
 C         -2.6282209474       -0.2530449495        0.0075917143
 C         -3.2925245261       -0.3223192111       -1.3858233170
 O         -2.6244059023        0.4193823513       -2.3608200861
 C         -2.4415975614        1.2364478491        0.3753782611
 O         -1.7728616595        1.4601189402        1.5969975884
 C         -1.2436506666       -0.8922968586       -0.0635347593
 O         -0.7316011223       -1.1571504975        1.1184045329
 O         -0.6626796037       -1.1064440665       -1.1045295301
 H         -2.9885695220       -1.0686255099        1.9925796343
 H         -3.7387086527       -1.9744139946        0.6873724695
 H         -4.4342157025       -0.4299528082        1.1822503746
 H         -4.3023678157        0.0926895021       -1.3243278882
 H         -3.3678339167       -1.3796276822       -1.6817072775
 H         -1.7186035505        0.0777645390       -2.4106921066
 H         -3.4328470672        1.7079770665        0.4002185871
 H         -1.8405195783        1.7262030415       -0.3942712324
 H         -2.1800017958        0.9123215505        2.2785271989
 H          0.2121257221       -1.4942446859        1.0405843209
 C          3.7179749904        1.4254903683        0.7001985893
 C          2.6966274595        0.4055975154        0.1913955881
 C          2.9742399645        0.0679817112       -1.2886134775
 O          2.1543251446       -0.9583095041       -1.7921237998
 C          2.7674050631       -0.8728887420        1.0519350454
 O          1.8065312371       -1.8420884618        0.6966209505
 C          1.3018864704        1.0192321356        0.3102275978
 O          0.9272576504        1.2030550336        1.5623220159
 O          0.6145280895        1.2963951573       -0.6418533345
 H          3.6920189151        2.3221478272        0.0853642733
 H          4.7198485569        1.0044489848        0.6594071156
 H          3.4920733211        1.6988537177        1.7275783270
 H          4.0010857596       -0.2949764848       -1.3883066296
 H          2.8638980321        0.9794425476       -1.8883052804
 H          1.2353253913       -0.6440251866       -1.8321227114
 H          2.5890334681       -0.6259480929        2.1012482014
 H          3.7740441958       -1.3012615804        0.9552697908
 H          1.8619327826       -1.9383948749       -0.2793984319
 H         -0.0265993967        1.4731677773        1.6060656344
  38
        -64.18326705
 C         -3.2039865587       -0.6392234588        1.5011530461
 C         -2.6374999941       -0.2133457389        0.1506825218
 C         -3.4926795466       -0.7957337569       -1.0045470571
 O         -3.0899771042       -0.3625230687       -2.2692821536
 C         -2.6238461031        1.3299648736        0.0217376312
 O         -1.5669670265        1.9444186043        0.7307820144
 C         -1.2269608127       -0.7446677435       -0.0558079772
 O         -0.7742715909       -1.4899493129        0.9172472920
 O         -0.5867556141       -0.5015281397       -1.0652366692
 H         -2.6250280295       -0.1936113710        2.3057197151
 H         -3.1709211661       -1.7199048446        1.6094663757
 H         -4.2363108496       -0.3088682858        1.5872596169
 H         -4.5288140353       -0.4683987414       -0.8833788080
 H         -3.4655122507       -1.8949915711       -0.9385271243
 H         -2.1250782341       -0.4550480620       -2.3288657814
 H         -3.5579695991        1.7142056663        0.4424949883
 H         -2.5830013375        1.5970432442       -1.0372790575
 H         -0.8496290309        2.1522844714        0.1026546442
 H          0.1820569263       -1.7634479442        0.7700570356
 C          3.7655547243        1.2046296405        0.9754883445
 C          2.7079998670        0.3166800455        0.3072239032
 C          3.0136045192        0.1909083849       -1.2021257382
 O          2.1528518446       -0.6943037792       -1.8774174264
 C          2.7079256772       -1.0707953642        0.9769047967
 O          1.7877885404       -1.9776706987        0.4128822903
 C          1.3755401842        1.0393771457        0.4773533880
 O          0.7624643724        0.7751938768        1.6152895318
 O          0.9441727356        1.8176191059       -0.3428420225
 H          3.7711093170        2.1908611378        0.5174215218
 H          4.7515442141        0.7611636669        0.8604731029
 H          3.5508938829        1.3110983877        2.0360878366
 H          4.0201594426       -0.2153788446       -1.3332319132
 H          2.9739843320        1.1886650693       -1.6545364840
 H          1.2441700846       -0.3474028350       -1.8523250382
 H          2.4489666364       -0.9792367716        2.0342562955
 H          3.7221657098       -1.4854933863        0.8978539398
 H          1.8880268290       -1.9041253898       -0.5609184648
 H         -0.1221796316        1.2167341171        1.6476850428
