%chk=34.chk
%nprocshared=4
%mem=8000mb
#T wB97XD/def2svpp opt=tight freq int(grid=ultrafine) scf=(verytight,qc) Volume=tight

Monomer

0 1
 C         -2.8362471446       -0.5658625282        0.0080892107
 C         -1.3612732867       -0.8466234166       -0.2705104403
 C         -0.3918286885        0.3286392091       -0.0077612010
 C         -0.5882785047        1.3771058646       -1.1115283841
 C         -0.7415855804        0.9923614127        1.3309895265
 C          1.0899964989       -0.1894312296        0.0051005565
 C          1.3691810832       -1.1463561709       -1.1631061154
 C          2.0913448757        0.9691820155       -0.1119581917
 C          1.4100178185       -0.9403769260        1.3055944628
 H         -3.0171620468       -0.3958609403        1.0656764409
 H         -3.4280271344       -1.4267153278       -0.2980293416
 H         -3.1942681617        0.2969355040       -0.5476745786
 H         -1.2686203912       -1.1435030637       -1.3161536802
 H         -1.0698612725       -1.7000989459        0.3434998251
 H         -1.6433172666        1.6190870043       -1.2110609192
 H         -0.2386670172        1.0137937580       -2.0743349681
 H         -0.0620795319        2.2971715511       -0.8744283973
 H         -1.6745896031        1.5423974626        1.2397152939
 H          0.0268737359        1.7004353369        1.6292194823
 H         -0.8555875305        0.2545496375        2.1201202039
 H          1.0671157958       -0.7159875237       -2.1141092652
 H          0.8568052146       -2.0951436208       -1.0327747312
 H          2.4370946639       -1.3497827681       -1.2156590717
 H          1.8930128261        1.7497642242        0.6174858992
 H          2.0723543162        1.4084215284       -1.1051436562
 H          3.0978227764        0.5961833239        0.0680374920
 H          0.6754264089       -1.7129473569        1.5165143913
 H          1.4514646414       -0.2617836467        2.1526154589
 H          2.3817207828       -1.4223509898        1.2163163534


