  36
        -50.44574253
 C         -4.0206188064       -0.1415581967       -0.5301150203
 C         -2.5329671457       -0.0384008840       -0.1575963618
 N         -1.6494293788       -0.1825471005       -1.3044215089
 C         -2.2630563247        1.3488833738        0.4689849622
 O         -0.9592697571        1.5020712891        0.9547852158
 C         -2.1893753787       -1.1488685395        0.8554705494
 O         -0.8237603518       -1.2307978763        1.1577324763
 H         -4.6473711700       -0.0681617064        0.3547017244
 H         -4.2209340317       -1.0943914424       -1.0169395080
 H         -4.2928789292        0.6609639173       -1.2133686845
 H         -1.8881787174        0.4846286261       -2.0285997511
 H         -1.6988924135       -1.1173697921       -1.6912076706
 H         -2.9300544048        1.4926191867        1.3243885190
 H         -2.4920686878        2.1226979279       -0.2782961513
 H         -0.3342150049        1.4603885424        0.1966268970
 H         -2.4735564530       -2.1230012354        0.4436201265
 H         -2.7735604359       -0.9802912123        1.7718805626
 H         -0.5083413459       -0.3209560145        1.3453271422
 C          4.0214136567        0.1406334763        0.5282396456
 C          2.5333632248        0.0380911631        0.1571652277
 N          1.6507688490        0.1811762810        1.3048700461
 C          2.1890152496        1.1495700552       -0.8545142526
 O          0.8233201428        1.2315260964       -1.1560271251
 C          2.2626177986       -1.3484813303       -0.4705587474
 O          0.9580326221       -1.5013346338       -0.9543237946
 H          4.2224939288        1.0930729265        1.0155029108
 H          4.6472585072        0.0676784748       -0.3572748749
 H          4.2942161885       -0.6624505719        1.2106227299
 H          1.7007878805        1.1154995346        1.6927177777
 H          1.8899315315       -0.4869231586        2.0280457627
 H          2.7728047980        0.9823698435       -1.7714431227
 H          2.4732099228        2.1232144826       -0.4415527898
 H          0.5076866928        0.3217300266       -1.3436601240
 H          2.4927955653       -2.1229554012        0.2755919668
 H          2.9281326678       -1.4914282705       -1.3272258322
 H          0.3340708822       -1.4595782468       -0.1952413737
