  34
        -33.66300081
 C         -1.9328010740       -2.0158606042       -1.3461980433
 C         -1.9973711181       -1.2223583789       -0.0468986439
 C         -2.0040830466        0.2831386359       -0.2990240852
 C         -2.0440832660        1.0862534681        0.9983139278
 C         -2.0200692987        2.5872122960        0.7368418915
 H         -1.0322198676       -1.7657128089       -1.9039357035
 H         -2.7934796949       -1.7927767087       -1.9733884912
 H         -1.9244392140       -3.0846326768       -1.1435882710
 H         -1.1384996163       -1.4787415966        0.5771345100
 H         -2.8993284570       -1.5005094452        0.5036380554
 H         -2.8710672610        0.5435016468       -0.9112812900
 H         -1.1092289079        0.5583531554       -0.8616318904
 H         -1.1868947704        0.8118596992        1.6180984247
 H         -2.9475114300        0.8282913761        1.5558745890
 H         -2.8813632390        2.8841172752        0.1424000709
 H         -1.1192619307        2.8655116674        0.1940669599
 H         -2.0420387235        3.1410515795        1.6726871412
 C          2.0081332776       -2.6188757236        0.6223661075
 C          2.0225992428       -1.1318608022        0.9546291341
 C          2.0179192803       -0.2690332834       -0.3044101167
 C          1.9943381430        1.2228607551        0.0177880181
 C          1.9548115652        2.0764168951       -1.2439647401
 H          2.8860949499       -2.8873979867        0.0386730935
 H          1.1229268421       -2.8715173457        0.0423805845
 H          2.0049702683       -3.2159779370        1.5315256517
 H          2.9093699473       -0.8999125173        1.5492629100
 H          1.1475098778       -0.8871110291        1.5617812948
 H          1.1423364669       -0.5214885614       -0.9067447501
 H          2.9047125231       -0.4964169419       -0.9012300742
 H          2.8808339290        1.4803016901        0.6022769074
 H          1.1191434645        1.4442727170        0.6323681738
 H          1.0665537713        1.8513284947       -1.8311919693
 H          2.8285792442        1.8841905184       -1.8630154848
 H          1.9395269544        3.1345214791       -0.9920452277
