  34
        -33.66300294
 C         -1.9107339727       -2.0723090181       -1.2487267947
 C         -1.9995623553       -1.2203263688        0.0115245811
 C         -2.0015603449        0.2723378648       -0.3079895164
 C         -2.0622111031        1.1322402530        0.9515690654
 C         -2.0205839812        2.6200045314        0.6250439064
 H         -0.9979035227       -1.8499765277       -1.7980857376
 H         -2.7570645142       -1.8760290276       -1.9035470445
 H         -1.9101216837       -3.1307576649       -0.9975820218
 H         -1.1526017243       -1.4476944368        0.6624016336
 H         -2.9116320758       -1.4739576571        0.5569884137
 H         -2.8581118627        0.5049188584       -0.9454415322
 H         -1.0975870772        0.5224175378       -0.8675370418
 H         -1.2201439839        0.8795227876        1.6006852353
 H         -2.9790684856        0.9051921518        1.5006932198
 H         -2.8613351389        2.8948020983       -0.0084158219
 H         -1.1013667005        2.8694827737        0.0992857498
 H         -2.0679132058        3.2144537624        1.5347115404
 C          1.9871813881       -2.6439626593        0.5274205901
 C          2.0405437402       -1.1715501885        0.9160984232
 C          2.0093067277       -0.2595012834       -0.3073923607
 C          2.0071459341        1.2185274816        0.0740868421
 C          1.9501185458        2.1226259748       -1.1512437760
 H          2.8364559062       -2.9032690017       -0.1011915088
 H          1.0752144329       -2.8596794279       -0.0251889007
 H          2.0098499597       -3.2760503674        1.4123214930
 H          2.9511120503       -0.9782395680        1.4882056071
 H          1.1912173513       -0.9358979080        1.5622107277
 H          1.1156151133       -0.4811765211       -0.8948653573
 H          2.8774007414       -0.4697441867       -0.9370286299
 H          2.9080206827        1.4442367622        0.6495698017
 H          1.1469386819        1.4231211700        0.7151732620
 H          1.9505959328        3.1697537949       -0.8564002172
 H          1.0477118336        1.9295344796       -1.7282534792
 H          2.8089527952        1.9478379805       -1.7958855284
