  34
        -33.66299780
 C         -2.1706160844       -2.4677131899       -0.6605031785
 C         -2.0938892740       -0.9776586476       -0.9699403386
 C         -2.0134156417       -0.1370499325        0.3015179208
 C         -1.9047400067        1.3555909238        0.0008307472
 C         -1.7753814092        2.1845308348        1.2729061792
 H         -3.0552853115       -2.6886262653       -0.0670340306
 H         -1.2951128428       -2.7864921176       -0.0985352737
 H         -2.2196554892       -3.0488462738       -1.5786919091
 H         -2.9729101709       -0.6793843407       -1.5462614395
 H         -1.2142864256       -0.7802258069       -1.5877792588
 H         -1.1438893208       -0.4518689964        0.8826722101
 H         -2.9011087513       -0.3196474721        0.9122095855
 H         -2.7894052518        1.6777097730       -0.5536029253
 H         -1.0351174016        1.5315661221       -0.6360125738
 H         -0.8861543350        1.8954581910        1.8299810160
 H         -2.6410858606        2.0369825890        1.9151782101
 H         -1.7012220826        3.2436166988        1.0356814479
 C          1.7797283974       -2.1204049986        1.3822356646
 C          1.9022002806       -1.3537198386        0.0709751685
 C          2.0109444990        0.1516816937        0.2991019970
 C          2.0974072322        0.9295017769       -1.0113415034
 C          2.1676126674        2.4330878896       -0.7743229756
 H          0.8923731179       -1.8061890003        1.9285907473
 H          2.6479310275       -1.9405273075        2.0128218827
 H          1.7065145896       -3.1898217679        1.1967983195
 H          1.0297749612       -1.5608492893       -0.5525371716
 H          2.7845974018       -1.7015213550       -0.4714720014
 H          2.8963879708        0.3631059135        0.9037367001
 H          1.1393805731        0.4949168613        0.8607595118
 H          1.2227361222        0.6993104836       -1.6248011264
 H          2.9813538358        0.6065816869       -1.5664451894
 H          3.0463537969        2.6853254820       -0.1845510536
 H          1.2863038921        2.7761596879       -0.2363032261
 H          2.2233056097        2.9689293154       -1.7192801468
