  34
        -33.66279705
 C         -1.7210478809       -2.1323405919       -0.5648858521
 C         -2.0186064427       -0.9863686606        0.3939560903
 C         -2.0542903691        0.3608764515       -0.3227832512
 C         -2.3336040401        1.5172888663        0.6338206049
 C         -2.3389041586        2.8606623303       -0.0849868255
 H         -0.7598779395       -1.9811625878       -1.0509433285
 H         -2.4870655610       -2.1943279623       -1.3350824346
 H         -1.6905824458       -3.0808073104       -0.0333586452
 H         -1.2536958176       -0.9583960832        1.1739059489
 H         -2.9797565145       -1.1615186131        0.8832515308
 H         -2.8264540632        0.3379178288       -1.0957615500
 H         -1.0959310342        0.5288809646       -0.8188901758
 H         -1.5720059648        1.5303368132        1.4174470604
 H         -3.3003091412        1.3595989504        1.1181073182
 H         -3.1036610028        2.8764466812       -0.8587132775
 H         -1.3745917989        3.0455781535       -0.5530393712
 H         -2.5413177314        3.6690561794        0.6139293801
 C          2.4744880283       -2.8435725219       -0.1140513949
 C          2.1610284389       -1.5450762407        0.6189273371
 C          2.1511589016       -0.3450307745       -0.3245049300
 C          1.8408954394        0.9598085030        0.4044558682
 C          1.8213738308        2.1511193748       -0.5453190187
 H          2.4833900628       -3.6821782968        0.5784396799
 H          3.4486893636       -2.7851659305       -0.5950446704
 H          1.7271720567       -3.0407145406       -0.8798529252
 H          2.9059185299       -1.3813059776        1.4013749033
 H          1.1860633566       -1.6307498876        1.1037951490
 H          1.4044872905       -0.5072968276       -1.1059874621
 H          3.1249945166       -0.2624113462       -0.8136145165
 H          2.5920155857        1.1270686269        1.1801055877
 H          0.8706545195        0.8740559457        0.8980186757
 H          1.0741895599        2.0076770510       -1.3235359052
 H          2.7903963090        2.2739166075       -1.0246159528
 H          1.5859211996        3.0668817900       -0.0076108331
