  34
        -33.66277348
 C         -2.5458117488       -2.6718652637        0.3245985552
 C         -2.5200975110       -1.3955803179       -0.5075418515
 C         -2.0761527774       -0.1892906859        0.3159647440
 C         -2.0333213406        1.0926946881       -0.5117562974
 C         -1.5899835922        2.2896423951        0.3203932481
 H         -3.2401943525       -2.5701844666        1.1559302525
 H         -1.5583108069       -2.8839795571        0.7288203331
 H         -2.8579476391       -3.5194091842       -0.2814435891
 H         -3.5161107752       -1.2076038161       -0.9155498108
 H         -1.8397186175       -1.5262638497       -1.3530303069
 H         -1.0846115562       -0.3826987518        0.7313513231
 H         -2.7639485975       -0.0534608563        1.1541962098
 H         -3.0244271931        1.2868383127       -0.9288025790
 H         -1.3459511767        0.9580834062       -1.3509895760
 H         -0.6003117195        2.1182551797        0.7375085615
 H         -2.2818549201        2.4588981424        1.1428004982
 H         -1.5553825946        3.1902254690       -0.2888215467
 C          1.5849655249       -2.2890973249       -0.3153837826
 C          2.0315838853       -1.0915932262        0.5141884376
 C          2.0734965517        0.1893141206       -0.3152520806
 C          2.5252309560        1.3953512351        0.5043583868
 C          2.5500949142        2.6704913621       -0.3295441370
 H          2.2735739656       -2.4588086164       -1.1404453981
 H          0.5936598348       -2.1180457807       -0.7286949974
 H          1.5528919556       -3.1893026214        0.2945348565
 H          3.0236359098       -1.2861832984        0.9287641330
 H          1.3466253086       -0.9552984542        1.3551038630
 H          1.0803381167        0.3849603087       -0.7256635559
 H          2.7565258004        0.0505686698       -1.1569045380
 H          3.5229442721        1.2050352925        0.9071114140
 H          1.8498406876        1.5290409404        1.3533520347
 H          1.5610132051        2.8848871049       -0.7286770382
 H          3.2397214501        2.5657581264       -1.1644757883
 H          2.8679415011        3.5178900796        0.2737246709
