  34
        -33.66275384
 C         -1.7476598191       -2.1263516143       -0.7369528065
 C         -2.0365092545       -1.0467150575        0.2983824026
 C         -2.0383209007        0.3487344682       -0.3200550082
 C         -2.3044029202        1.4396026319        0.7140667090
 C         -2.2776549262        2.8300883643        0.0917666053
 H         -0.7781349013       -1.9583017048       -1.2005895392
 H         -2.5049497700       -2.1189169963       -1.5181385766
 H         -1.7402395877       -3.1107787670       -0.2744926594
 H         -1.2811816388       -1.0896255178        1.0867163880
 H         -3.0069118989       -1.2381421647        0.7625829803
 H         -2.8027110450        0.3971461967       -1.0995520356
 H         -1.0717760581        0.5322249256       -0.7941654724
 H         -1.5498860516        1.3818921273        1.5026031804
 H         -3.2780985312        1.2669732475        1.1788211831
 H         -3.0341697041        2.9143232337       -0.6856252972
 H         -1.3054848271        3.0288156143       -0.3539241755
 H         -2.4724482439        3.5913052558        0.8438157724
 C          2.3825817561       -2.8222930031        0.0437273477
 C          2.1309011601       -1.4692327367        0.6973582655
 C          2.1339238460       -0.3329394926       -0.3218689197
 C          1.8761435035        1.0248057743        0.3265092996
 C          1.8645482271        2.1518507805       -0.6989312904
 H          3.3478224075       -2.8304527194       -0.4582416982
 H          1.6125551130       -3.0398843915       -0.6932992578
 H          2.3763170794       -3.6148438142        0.7884652754
 H          2.9008561860       -1.2803943447        1.4492523293
 H          1.1668781699       -1.4900564252        1.2104563955
 H          1.3658586214       -0.5236406260       -1.0755660819
 H          3.0985887080       -0.3107512773       -0.8349752217
 H          2.6503742516        1.2212536951        1.0719811801
 H          0.9165182448        0.9985912330        0.8470354966
 H          1.6737076011        3.1079222804       -0.2163943975
 H          1.0903790572        1.9827527881       -1.4450372680
 H          2.8221611033        2.2117830810       -1.2119440838
