  34
        -33.66279125
 C         -1.7714595096       -2.2110806486        0.2640019631
 C         -2.1151328141       -0.9629528736       -0.5395156785
 C         -2.0440808429        0.2995257700        0.3157485553
 C         -2.3941078991        1.5566523050       -0.4763246705
 C         -2.2927797750        2.8127961562        0.3802523625
 H         -2.4712746186       -2.3387015332        1.0871895980
 H         -0.7689059446       -2.1334434188        0.6782499154
 H         -1.8164930478       -3.0979340802       -0.3643645575
 H         -3.1212069497       -1.0627987610       -0.9539381376
 H         -1.4227816946       -0.8691454740       -1.3801925260
 H         -1.0359958785        0.4009691915        0.7237808536
 H         -2.7327517379        0.2023311557        1.1586335971
 H         -3.4096284996        1.4652166643       -0.8689983948
 H         -1.7193879512        1.6443366122       -1.3317919862
 H         -1.2834484768        2.9287769674        0.7692965159
 H         -2.9788423839        2.7553331971        1.2227005221
 H         -2.5393829510        3.6968822449       -0.2034457967
 C          2.3309824360       -2.8244895435       -0.2739074255
 C          2.3822040638       -1.5343837265        0.5354510167
 C          2.0503387812       -0.3132747473       -0.3185186976
 C          2.0936833037        0.9833139973        0.4861768439
 C          1.7583579826        2.1958359862       -0.3734089246
 H          3.0534443476       -2.7929298308       -1.0866939234
 H          1.3414410735       -2.9677591287       -0.7025982790
 H          2.5597639298       -3.6816799820        0.3553416324
 H          3.3798132965       -1.4144109435        0.9646587468
 H          1.6742935615       -1.5973991028        1.3659613456
 H          1.0546258411       -0.4361345771       -0.7504858626
 H          2.7624096338       -0.2478471109       -1.1448164910
 H          3.0899661508        1.1075374509        0.9172838288
 H          1.3844639236        0.9178313482        1.3153686552
 H          0.7637365330        2.0960245232       -0.8019006663
 H          2.4724795837        2.2944100924       -1.1882600939
 H          1.7874277293        3.1073839121        0.2195536522
