  34
        -33.66298542
 C         -2.1644863051       -2.4122418464        0.8138459733
 C         -2.0814585708       -0.9057171022        1.0268088986
 C         -2.0163536980       -0.1477085174       -0.2964207701
 C         -1.9089587097        1.3612398399       -0.0921595779
 C         -1.7955716922        2.1080200413       -1.4156297992
 H         -1.2976620330       -2.7679273626        0.2605865881
 H         -3.0579373144       -2.6685035041        0.2484178608
 H         -2.2008780412       -2.9338167992        1.7677173537
 H         -1.1936718884       -0.6713052119        1.6194508406
 H         -2.9525915524       -0.5695528150        1.5942069505
 H         -2.9098072009       -0.3706144805       -0.8849169273
 H         -1.1519887656       -0.4970873560       -0.8654715152
 H         -1.0333994510        1.5792656795        0.5231826086
 H         -2.7888068072        1.7156981398        0.4500633799
 H         -2.6664356309        1.9159127129       -2.0388546733
 H         -0.9100613415        1.7881248996       -1.9616204894
 H         -1.7246795001        3.1803565541       -1.2470874905
 C          1.7992577262       -2.1771959222       -1.3041761713
 C          1.9111381259       -1.3644369004       -0.0200344324
 C          2.0095503809        0.1328674319       -0.3001376474
 C          2.0908643274        0.9563376241        0.9824841690
 C          2.1562862782        2.4510143126        0.6934031082
 H          2.6696271510       -2.0145568990       -1.9364649360
 H          0.9129455858       -1.8872085786       -1.8653730635
 H          1.7309918901       -3.2399015734       -1.0818640171
 H          2.7941308204       -1.6863953160        0.5371514922
 H          1.0380664842       -1.5562901284        0.6074302357
 H          1.1357584833        0.4505713052       -0.8732036856
 H          2.8936068264        0.3290916026       -0.9118409421
 H          2.9750133713        0.6560972240        1.5498172504
 H          1.2160203374        0.7445495171        1.6022401661
 H          1.2753251852        2.7720977539        0.1414369758
 H          3.0355769903        2.6856541089        0.0973110236
 H          2.2076643191        3.0197741582        1.6191952519
