  34
        -33.66282176
 C         -2.7402111259       -2.6709011187        0.2756786169
 C         -2.3080934244       -1.4581258542       -0.5393005839
 C         -2.1815351086       -0.2061986402        0.3250226549
 C         -1.7450627880        1.0124399387       -0.4840513490
 C         -1.6124835852        2.2556212120        0.3867429028
 H         -3.7059448813       -2.4922188047        0.7438980262
 H         -2.0156939067       -2.8833508986        1.0592049365
 H         -2.8240759190       -3.5497607696       -0.3594768686
 H         -3.0371400823       -1.2757196040       -1.3324146835
 H         -1.3474268560       -1.6666054944       -1.0152567925
 H         -1.4544119114       -0.3895639309        1.1202500051
 H         -3.1427667627        0.0021935893        0.8014472459
 H         -2.4741993432        1.2001677545       -1.2758428073
 H         -0.7862974740        0.8013446290       -0.9619204188
 H         -0.8895077329        2.0887709828        1.1827850107
 H         -2.5676508108        2.5065208578        0.8433669354
 H         -1.2807298936        3.1055991326       -0.2053333957
 C          1.5533889327       -2.2412395689        0.3884768806
 C          1.9279770930       -1.0540401212       -0.4899557376
 C          2.0834732209        0.2284669729        0.3232799539
 C          2.4437746573        1.4273688208       -0.5503458075
 C          2.5937112040        2.7032378822        0.2688208177
 H          0.6169291959       -2.0498865502        0.9073204208
 H          2.3253557598       -2.4234787302        1.1331796579
 H          1.4352149706       -3.1412311300       -0.2108167820
 H          1.1565728874       -0.9075741524       -1.2501089449
 H          2.8645852376       -1.2677836643       -1.0105228838
 H          2.8618722264        0.0848570285        1.0767964694
 H          1.1491277558        0.4353875009        0.8496353052
 H          1.6663448886        1.5722386082       -1.3043678481
 H          3.3788060538        1.2216153253       -1.0769544195
 H          3.3742569587        2.5864204252        1.0177573324
 H          1.6627123802        2.9402330869        0.7790125943
 H          2.8560404307        3.5419902946       -0.3720093979
