  34
        -33.66289896
 C         -2.1358918595       -1.4476676558       -2.0632551788
 C         -2.0128246886       -0.1066599768       -1.3504491080
 C         -2.0856094798       -0.2588061216        0.1666087685
 C         -1.9511055861        1.0791715482        0.8888179710
 C         -2.0097584900        0.9168925563        2.4026662333
 H         -3.0866237510       -1.9206230211       -1.8260574875
 H         -1.3362875664       -2.1189781226       -1.7565003591
 H         -2.0768582399       -1.3162819317       -3.1412829159
 H         -2.8135035756        0.5571014651       -1.6855014012
 H         -1.0629225285        0.3600330572       -1.6197111906
 H         -1.2886304154       -0.9283374427        0.4990334493
 H         -3.0379669192       -0.7209696373        0.4381034988
 H         -2.7522354887        1.7471009326        0.5631449112
 H         -1.0022814058        1.5439598888        0.6109423107
 H         -1.2073716604        0.2688123688        2.7482831870
 H         -2.9581677764        0.4760839434        2.7025767715
 H         -1.9087923717        1.8808699311        2.8965404259
 C          2.0506586417        0.7454809288        2.4158894221
 C          1.9704238927       -0.3152610646        1.3251018034
 C          2.0836187131        0.2925215498       -0.0704832276
 C          1.9910901311       -0.7626857970       -1.1695134219
 C          2.0990534216       -0.1477247578       -2.5593732000
 H          1.2473728797        1.4702183339        2.3032802193
 H          2.9991653122        1.2757832040        2.3630541031
 H          1.9668496378        0.2909149435        3.4006190753
 H          1.0212652345       -0.8496337642        1.4087644719
 H          2.7718324204       -1.0443541053        1.4669578964
 H          3.0357797122        0.8218354041       -0.1570860321
 H          1.2858066861        1.0261991573       -0.2088046436
 H          1.0396734927       -1.2914160644       -1.0809416985
 H          2.7900141004       -1.4956935486       -1.0342053950
 H          1.3020925200        0.5753226521       -2.7209983941
 H          2.0241059339       -0.9157061411       -3.3258275699
 H          3.0517987062        0.3642299853       -2.6776671449
