  34
        -33.66281269
 C         -2.9811979149        2.3627052538       -0.6460860062
 C         -2.4615400558        0.9654067607       -0.9611360636
 C         -2.1861976257        0.1602004841        0.3062484406
 C         -1.6612352356       -1.2396909252       -0.0016820869
 C         -1.3836624073       -2.0355509447        1.2674891929
 H         -2.2538957600        2.9176451630       -0.0570101826
 H         -3.9078980681        2.3068202579       -0.0787215396
 H         -3.1726734658        2.9164044822       -1.5623915763
 H         -1.5418678344        1.0450444265       -1.5449501164
 H         -3.1957817835        0.4348092052       -1.5719726226
 H         -3.1065303767        0.0802658346        0.8901639439
 H         -1.4541708932        0.6924049555        0.9190167298
 H         -0.7421975762       -1.1576997563       -0.5855505267
 H         -2.3934661861       -1.7736522832       -0.6120626464
 H         -2.2958820377       -2.1625896898        1.8467097382
 H         -0.6556834408       -1.5191720924        1.8898681071
 H         -0.9903317412       -3.0202369721        1.0251326067
 C          2.8359337480       -2.1416684561        1.2701251506
 C          2.5518250360       -1.3525820265       -0.0019365010
 C          2.1088997007        0.0765786648        0.3008247127
 C          1.8227564755        0.8751760213       -0.9683157045
 C          1.3661920723        2.2946041200       -0.6551118101
 H          1.9431674427       -2.2026038755        1.8886191012
 H          3.6215828843       -1.6615673044        1.8498867214
 H          3.1558373824       -3.1532412024        1.0306276915
 H          1.7711436752       -1.8595377661       -0.5740393232
 H          3.4511591656       -1.3274323277       -0.6220553141
 H          2.8894013532        0.5815948494        0.8753631702
 H          1.2089066665        0.0504593890        0.9190715543
 H          1.0495687734        0.3655436123       -1.5484910415
 H          2.7246800312        0.9105272804       -1.5840511302
 H          2.1348754924        2.8290430764       -0.1008225800
 H          0.4602572758        2.2787721636       -0.0535732036
 H          1.1594924136        2.8433560152       -1.5712474756
