  34
        -33.66275722
 C         -2.5697147250       -2.6825120451        0.3460961609
 C         -2.5478865290       -1.4111594699       -0.4936284814
 C         -2.0793059806       -0.2041120935        0.3149964158
 C         -2.0364685413        1.0718644553       -0.5219228929
 C         -1.5693438847        2.2700503812        0.2953236550
 H         -3.2456878614       -2.5690315194        1.1909982808
 H         -1.5762412435       -2.9027721929        0.7308743521
 H         -2.9031763775       -3.5299387395       -0.2486465395
 H         -3.5492659695       -1.2168226651       -0.8852130427
 H         -1.8835775033       -1.5526512311       -1.3500778014
 H         -1.0834690838       -0.4046975650        0.7162720252
 H         -2.7526737345       -0.0560047390        1.1628011883
 H         -3.0317540394        1.2728362889       -0.9255463407
 H         -1.3629495437        0.9248488327       -1.3702478158
 H         -0.5749625266        2.0923238463        0.6982361283
 H         -2.2467502616        2.4511133678        1.1271983498
 H         -1.5360068820        3.1662217958       -0.3204223411
 C          1.5658706179       -2.2635928217       -0.3382253298
 C          2.0186433606       -1.0773136768        0.5040279094
 C          2.0857451435        0.2083878670       -0.3163138447
 C          2.5406438293        1.4036684892        0.5172570395
 C          2.5905111312        2.6841421468       -0.3072943255
 H          0.5815937309       -2.0770045069       -0.7615001039
 H          1.5151418220       -3.1670904218        0.2655270864
 H          2.2615012326       -2.4371833547       -1.1565423275
 H          3.0035349963       -1.2872255273        0.9280557559
 H          1.3264132063       -0.9377216815        1.3384379636
 H          1.1002185114        0.4180871842       -0.7381139857
 H          2.7778795574        0.0673710000       -1.1500942334
 H          3.5309153460        1.1992570003        0.9312703878
 H          1.8561243611        1.5393729260        1.3586061013
 H          1.6088919319        2.9130598453       -0.7167091758
 H          3.2888327054        2.5770222188       -1.1346465283
 H          2.9110260120        3.5235030949        0.3057132405
