  34
        -33.66274967
 C         -1.5759569895       -0.7703973668       -2.3487405900
 C         -1.7539085469        0.3214836008       -1.3008980206
 C         -2.1242226020       -0.2531235101        0.0639377540
 C         -2.3135372842        0.8362476818        1.1163537889
 C         -2.6377069223        0.2538694061        2.4863006074
 H         -2.4990818272       -1.3319533632       -2.4768324653
 H         -0.7947500287       -1.4661971630       -2.0483607546
 H         -1.3009596846       -0.3391437008       -3.3088528366
 H         -2.5355378877        1.0121436309       -1.6263142423
 H         -0.8266444640        0.8913028596       -1.2109329474
 H         -1.3375511093       -0.9366397199        0.3919720898
 H         -3.0469814444       -0.8317923291       -0.0257132391
 H         -3.1207574917        1.5032044493        0.8041373899
 H         -1.4014895506        1.4339739032        1.1847482286
 H         -1.8292509867       -0.3888078894        2.8281425662
 H         -3.5502060796       -0.3372622316        2.4436346156
 H         -2.7767723303        1.0472156914        3.2173579457
 C          1.4906740098       -0.8730587844        2.3408571652
 C          1.8300711707        0.2005296295        1.3145434127
 C          2.0654087294       -0.3901483166       -0.0731516000
 C          2.4211288975        0.6792887627       -1.1028364758
 C          2.6065974517        0.0889913165       -2.4951442848
 H          2.3094994695       -1.5832110614        2.4365165345
 H          0.5994254280       -1.4206991033        2.0405824561
 H          1.3069374865       -0.4270656643        3.3159208340
 H          2.7254504391        0.7388602362        1.6350025175
 H          1.0121318793        0.9227112932        1.2630963017
 H          1.1641518570       -0.9146281139       -0.3978085665
 H          2.8736485762       -1.1237796744       -0.0215778325
 H          3.3403160333        1.1839916530       -0.7960340420
 H          1.6282673891        1.4308205947       -1.1316613383
 H          1.6910833703       -0.3949511190       -2.8282342479
 H          3.4039239548       -0.6513794558       -2.4925697577
 H          2.8632827323        0.8668862988       -3.2107787134
