  34
        -33.66280080
 C         -2.6301189728       -2.6821100377        0.3978494785
 C         -2.4231067221       -1.4599796488       -0.4881873047
 C         -2.0934520229       -0.2129905262        0.3283155869
 C         -1.9011976418        1.0202303413       -0.5505420192
 C         -1.5571973765        2.2557166052        0.2719346116
 H         -3.4474333531       -2.5135327427        1.0959886154
 H         -1.7302451696       -2.8957473125        0.9705630792
 H         -2.8677876524       -3.5563580157       -0.2039022515
 H         -3.3281273964       -1.2787286828       -1.0730583286
 H         -1.6101318007       -1.6572480373       -1.1908078905
 H         -1.1815196601       -0.3903122826        0.9028438703
 H         -2.9007027630       -0.0247277052        1.0405657861
 H         -2.8159905527        1.2047830548       -1.1188806510
 H         -1.1010063213        0.8292408124       -1.2696691543
 H         -0.6396272681        2.0956255180        0.8333146813
 H         -2.3547379881        2.4786057685        0.9776492009
 H         -1.4177141533        3.1206117440       -0.3727505660
 C          1.5943451340       -2.2649159532        0.2593402793
 C          1.7864221875       -0.9926271433       -0.5565425620
 C          2.1551312638        0.1983398948        0.3241897484
 C          2.3436210192        1.4792236335       -0.4846095611
 C          2.7166217324        2.6612793568        0.4016358784
 H          0.8080994515       -2.1281923829        0.9987576848
 H          2.5118218345       -2.5257439016        0.7829072185
 H          1.3177711300       -3.0966598632       -0.3846553262
 H          0.8651973990       -0.7673189991       -1.0981685624
 H          2.5740899161       -1.1514622000       -1.2970263235
 H          3.0776904014       -0.0254742857        0.8656370421
 H          1.3684683385        0.3539893303        1.0666443448
 H          1.4197986443        1.7068829853       -1.0210012479
 H          3.1279973893        1.3226570878       -1.2289932434
 H          1.9369127105        2.8498449641        1.1368137343
 H          2.8487178917        3.5612213998       -0.1945419641
 H          3.6448931763        2.4622256095        0.9331276718
