  34
        -33.66274734
 C         -2.5155447067       -2.5923384247       -0.0296725982
 C         -2.1254892350       -1.2695193834       -0.6774384504
 C         -2.1707105909       -0.1120097951        0.3167132468
 C         -1.8154081716        1.2220838055       -0.3350253599
 C         -1.8279353919        2.3665975797        0.6709629180
 H         -3.5284675052       -2.5405532815        0.3641800587
 H         -1.8427756306       -2.8302841247        0.7916979388
 H         -2.4698593585       -3.4022132517       -0.7541179812
 H         -2.8046651603       -1.0582793409       -1.5068558865
 H         -1.1170880968       -1.3511462993       -1.0889416796
 H         -1.4733457335       -0.3120717437        1.1344739024
 H         -3.1721386716       -0.0461773195        0.7493484287
 H         -2.5297638726        1.4340833625       -1.1340681455
 H         -0.8253375057        1.1492163661       -0.7900729525
 H         -1.1126851984        2.1815499377        1.4702992649
 H         -2.8146734101        2.4724094674        1.1169296393
 H         -1.5682534009        3.3059035530        0.1875104812
 C          1.6841469699       -2.3379438221        0.7010375314
 C          2.0883737967       -1.2602353630       -0.2970496341
 C          2.0290776383        0.1352856034        0.3187237112
 C          2.3866325034        1.2264409691       -0.6872006462
 C          2.2941088853        2.6177285082       -0.0727398841
 H          0.6692971749       -2.1672841725        1.0531846374
 H          2.3501005903       -2.3307695182        1.5614415988
 H          1.7264034034       -3.3230057734        0.2418362386
 H          1.4226642351       -1.3003757681       -1.1628900079
 H          3.1023823942       -1.4557066594       -0.6539857368
 H          2.7177087196        0.1857455508        1.1657124988
 H          1.0223627072        0.3156763824        0.7014982042
 H          1.7105997007        1.1633223814       -1.5437831811
 H          3.4008143530        1.0583745250       -1.0573446578
 H          2.9752142318        2.7080056507        0.7708097937
 H          1.2840524045        2.8112697812        0.2810926717
 H          2.5526990545        3.3789090458       -0.8053084685
