  34
        -33.66314235
 C         -2.0842611871       -2.4635254809        0.3409809947
 C         -2.1246372203       -1.2010593175       -0.5111903793
 C         -1.9898588547        0.0615394762        0.3360113619
 C         -2.0268854755        1.3322834662       -0.5089566193
 C         -1.8898664416        2.5863233125        0.3456021692
 H         -2.8991891055       -2.4626407693        1.0618701147
 H         -1.1455036411       -2.5258580722        0.8867696528
 H         -2.1782214166       -3.3506368234       -0.2814487285
 H         -3.0663540575       -1.1659901853       -1.0642993117
 H         -1.3148660021       -1.2315425549       -1.2444510700
 H         -1.0482868847        0.0247319316        0.8883697343
 H         -2.8009681376        0.0921563299        1.0677389211
 H         -2.9682981355        1.3707826731       -1.0623938741
 H         -1.2168898148        1.3018515626       -1.2419885146
 H         -2.7032434036        2.6472626215        1.0656403242
 H         -1.9140337237        3.4792063138       -0.2752005764
 H         -0.9497751226        2.5747175435        0.8925522131
 C          1.8909642422       -2.5875918338       -0.3404236952
 C          2.0276508220       -1.3311309945        0.5105753506
 C          1.9865137381       -0.0619867174       -0.3366154273
 C          2.1288199000        1.2015458576        0.5080036321
 C          2.0816240591        2.4636860222       -0.3443027357
 H          2.7045115412       -2.6505456321       -1.0601255360
 H          0.9509251048       -2.5779588270       -0.8875354224
 H          1.9152720228       -3.4785893437        0.2831593384
 H          2.9704400978       -1.3666441833        1.0618736980
 H          1.2193173439       -1.3004051822        1.2454194224
 H          1.0412446446       -0.0248592170       -0.8825112587
 H          2.7925298673       -0.0949119435       -1.0738257604
 H          3.0752971305        1.1665099388        1.0529429519
 H          1.3254789183        1.2327801112        1.2482727018
 H          1.1382831205        2.5263150803       -0.8820574449
 H          2.8903394969        2.4623568081       -1.0721215115
 H          2.1812324564        3.3509133000        0.2771078982
