%nprocshared=4
%mem=8000mb
%chk=7.chk
%nprocshared=4
%mem=8000mb
#T wB97XD/def2svpp opt=(calcfc,tight) freq int(grid=ultrafine) scf=(verytight,qc) Volume=tight

Dimer

0 1
C        1.884305   -2.535552   -0.326115
C        1.913270   -1.261981    0.514224
C        1.867215    0.016539   -0.320948
C        1.889856    1.295747    0.514229
C        1.838012    2.568547   -0.326117
H        2.751003   -2.580871   -1.009646
H        0.969725   -2.584838   -0.943416
H        1.908246   -3.438132    0.308404
H        2.824240   -1.253680    1.141785
H        1.059817   -1.265015    1.218206
H        0.955476    0.008238   -0.948864
H        2.722053    0.024383   -1.025130
H        2.800724    1.303996    1.141954
H        1.036455    1.283137    1.218111
H        2.703947    2.629544   -1.009441
H        1.845460    3.471421    0.308404
H        0.922829    2.601232   -0.943564
C       -1.838764   -2.568612    0.326045
C       -1.890463   -1.295708   -0.514166
C       -1.867213   -0.016523    0.321066
C       -1.912812    1.261977   -0.514222
C       -1.883398    2.535565    0.326036
H       -2.704129   -2.629114    1.010138
H       -0.923037   -2.601804    0.942663
H       -1.847284   -3.471489   -0.308462
H       -2.801576   -1.303754   -1.141526
H       -1.037237   -1.283363   -1.218403
H       -0.955525   -0.008437    0.949044
H       -2.722036   -0.024115    1.025278
H       -2.823780    1.253993   -1.141807
H       -1.059430    1.264579   -1.218261
H       -0.968914    2.584576    0.943472
H       -2.750236    2.581367    1.009371
H       -1.906839    3.438154   -0.308496


