  34
        -49.84516310
 C          3.1866577336       -2.1312763517        0.0676854377
 C          2.8210127853       -0.7243702049       -0.4132215761
 C          2.0956544363       -0.8162363656       -1.7586986393
 C          1.9088334627       -0.0966244480        0.6412785876
 Cl         1.3712636297        1.5382155736        0.1836848395
 C          4.0827167244        0.1199904218       -0.6089828758
 Cl         5.0330077127        0.2814306781        0.8916387472
 H          2.2888635196       -2.7309351699        0.1934643935
 H          3.7123405435       -2.0896840418        1.0178500581
 H          3.8295044821       -2.6189391043       -0.6608659086
 H          1.1871460732       -1.4020219091       -1.6475175514
 H          2.7297169302       -1.2977622766       -2.4986819888
 H          1.8282586459        0.1717691454       -2.1240666534
 H          2.4311612068        0.0069429311        1.5922843672
 H          1.0103519073       -0.6985529678        0.7721654450
 H          3.8273191480        1.1314180701       -0.9256595526
 H          4.7405014716       -0.3395617605       -1.3461115014
 C         -3.0108727894        2.0678368740       -0.5735461221
 C         -2.6722655332        0.5756583892       -0.6270898007
 C         -1.6735387540        0.3200975072       -1.7592324955
 C         -2.0616010499        0.1895272014        0.7208275042
 Cl        -1.5182665936       -1.5063343035        0.7565012946
 C         -3.9289039574       -0.2528737735       -0.9047414650
 Cl        -5.1956324834       -0.0038404395        0.3259159473
 H         -2.1086788901        2.6505340380       -0.4067573573
 H         -3.7140991462        2.2765393497        0.2282625228
 H         -3.4566797346        2.3825589021       -1.5137106267
 H         -0.7561921524        0.8701662320       -1.5688007099
 H         -2.0859212167        0.6497369274       -2.7092292700
 H         -1.4364205904       -0.7379027706       -1.8341944187
 H         -2.7931636071        0.2959192492        1.5218364725
 H         -1.1876351160        0.8043970429        0.9308159672
 H         -3.6982920173       -1.3184339124       -0.9020564963
 H         -4.3670409255        0.0251510277       -1.8628066517
