  34
        -49.84416640
 C          3.9438630793        0.0682190074        1.8672551725
 C          3.3760210043       -0.0586722831        0.4508031758
 C          4.4375664173       -0.6550410031       -0.4787182626
 C          2.1505535984       -0.9723017150        0.5162712205
 Cl         1.4154674835       -1.2302646556       -1.0833955522
 C          2.9910372689        1.3187879904       -0.0950877049
 Cl         1.8009031882        2.1510922031        0.9370167279
 H          4.2439678800       -0.9061992483        2.2440485853
 H          3.2025110869        0.4865208512        2.5427961911
 H          4.8144802496        0.7194428435        1.8629330469
 H          4.7346133215       -1.6382414325       -0.1221796972
 H          5.3184833380       -0.0187252050       -0.5066336923
 H          4.0520369570       -0.7572359834       -1.4898851734
 H          1.3738243294       -0.5426176212        1.1489209394
 H          2.4257623902       -1.9576380025        0.8915056613
 H          2.5398487348        1.2294598524       -1.0834020547
 H          3.8651992900        1.9673160040       -0.1466970888
 C         -3.7785098969        1.3428068417       -1.1600204907
 C         -2.5190838992        0.6388639192       -0.6462545876
 C         -1.2854926550        1.4853280874       -0.9688994765
 C         -2.6664942376        0.4634801816        0.8668287232
 Cl        -1.2573633954       -0.3259882117        1.6014493581
 C         -2.3490807955       -0.7190733672       -1.3307227523
 Cl        -3.7382174447       -1.7993961903       -1.0501794784
 H         -4.6644806492        0.7477838302       -0.9539223779
 H         -3.7074303426        1.4939688301       -2.2342421824
 H         -3.8922338584        2.3129754510       -0.6826096627
 H         -1.3558957076        2.4543737948       -0.4810186396
 H         -1.2042381526        1.6422932004       -2.0414653896
 H         -0.3819239621        0.9924060200       -0.6238670994
 H         -3.5281518454       -0.1627660870        1.1000168474
 H         -2.7682155993        1.4318444751        1.3569709871
 H         -1.4676971890       -1.2363526527       -0.9524052859
 H         -2.2635465737       -0.5948070754       -2.4097735301
