  34
        -49.84463950
 C          4.1250920083       -1.3879567527       -0.3130440690
 C          2.7818510428       -0.9946826157        0.3092871978
 C          2.4878539693       -1.8822056298        1.5219044021
 C          2.8805733814        0.4726555387        0.7331449783
 Cl         1.3893904653        1.0678004613        1.4937648579
 C          1.6531509792       -1.1968336897       -0.7041397413
 Cl         1.8274601728       -0.1464802609       -2.1329978038
 H          4.9337323254       -1.2397975566        0.3984379751
 H          4.3264567874       -0.7896624807       -1.1979515153
 H          4.1087499726       -2.4359066969       -0.6015611486
 H          3.2727233472       -1.7719355170        2.2663618936
 H          2.4399931295       -2.9261408697        1.2231448355
 H          1.5373694990       -1.6119454842        1.9751467705
 H          3.0647615096        1.1112910296       -0.1306900866
 H          3.6751998592        0.6052231912        1.4675166449
 H          0.6861825959       -0.9710061835       -0.2565218655
 H          1.6504489697       -2.2230064727       -1.0704012772
 C         -4.1218115967        1.3922405598       -0.3210017907
 C         -2.7789763523        1.0002766668        0.3030075687
 C         -2.4794299243        1.8992540744        1.5057879179
 C         -2.8823695938       -0.4621418881        0.7424867037
 Cl        -1.3909624675       -1.0554922606        1.5040731920
 C         -1.6514359149        1.1874991813       -0.7145653858
 Cl        -1.8319028748        0.1225459816       -2.1317807785
 H         -4.9298200232        1.2541301629        0.3932125682
 H         -4.3267950624        0.7859128597       -1.1995837734
 H         -4.1021109604        2.4372066524       -0.6199728925
 H         -3.2636022530        1.8000584548        2.2525335162
 H         -2.4276972621        2.9397978729        1.1960402379
 H         -1.5293817215        1.6298036035        1.9604106948
 H         -3.0722219567       -1.1089870173       -0.1139780529
 H         -3.6749841402       -0.5836797165        1.4809403685
 H         -0.6845168577        0.9630091097       -0.2662281605
 H         -1.6456904151        2.2096551652       -1.0918326533
