  34
        -49.84419778
 C          3.7555247934        1.0307412459        1.4195823343
 C          3.1449441719        0.0498935923        0.4145929686
 C          4.2256534287       -0.9080618898       -0.0956379733
 C          2.0379052458       -0.7302965619        1.1273992099
 Cl         1.2423800085       -1.9095024721        0.0532591296
 C          2.5815225936        0.8035407511       -0.7922724654
 Cl         1.3356151584        1.9885387844       -0.3319721572
 H          4.1712600944        0.4932813147        2.2678916757
 H          3.0035663555        1.7245301382        1.7863888834
 H          4.5525743335        1.6010312857        0.9485953589
 H          5.0180493823       -0.3568525495       -0.5958150151
 H          3.8039227118       -1.6235922697       -0.7965309621
 H          4.6598498675       -1.4560171623        0.7367805434
 H          1.2566590555       -0.0613307817        1.4886656633
 H          2.4478303509       -1.2976352569        1.9624359814
 H          2.1123753655        0.1119124607       -1.4919314550
 H          3.3685172388        1.3633011476       -1.2972409882
 C         -4.1289894882        0.4285870029       -1.1493220532
 C         -2.7776161073        0.6321367507       -0.4578139918
 C         -2.4711464822        2.1293861528       -0.3600940785
 C         -2.8663652664        0.0089047583        0.9370724199
 Cl        -1.3963128418        0.2764679319        1.8957932874
 C         -1.6577058631       -0.0291535235       -1.2636049024
 Cl        -1.9440476357       -1.7686193526       -1.5257390455
 H         -4.3673932304       -0.6289518173       -1.2250508096
 H         -4.0994092310        0.8471100805       -2.1521391495
 H         -4.9193745413        0.9251180185       -0.5917760592
 H         -3.2280618459        2.6276515031        0.2409481697
 H         -2.4662266650        2.5783355596       -1.3499800926
 H         -1.4994435035        2.2974207860        0.0965053560
 H         -2.9999309719       -1.0708780319        0.8669547345
 H         -3.6878321568        0.4477920957        1.5037206016
 H         -0.7068807069        0.0535289354       -0.7387510928
 H         -1.5751942326        0.4265841920       -2.2497265146
