  34
        -49.84549820
 C          2.6348261006       -1.7407184328        1.2683923629
 C          2.2219059385       -0.9160832151        0.0460911157
 C          1.0387565662       -1.5942174187       -0.6500508803
 C          1.8309961554        0.4780090235        0.5400306889
 Cl         1.2547554726        1.5310588133       -0.7761886153
 C          3.3736575980       -0.8269720953       -0.9577842781
 Cl         4.8372485320       -0.0917509131       -0.2533042131
 H          1.8045473353       -1.8167487419        1.9657211234
 H          3.4770451144       -1.2808099921        1.7785522252
 H          2.9226280065       -2.7431375194        0.9617561261
 H          0.1959824163       -1.6581050148        0.0329095622
 H          1.3076170200       -2.6013586011       -0.9580418517
 H          0.7337668298       -1.0362812360       -1.5316317857
 H          2.6879883804        0.9831513693        0.9854277620
 H          1.0202210450        0.4112432621        1.2646052657
 H          3.0950535505       -0.2084045621       -1.8111294145
 H          3.6597668361       -1.8204762998       -1.3017600424
 C         -2.6868739267        2.2863212158        0.7089644140
 C         -3.1639081681        0.9127899364        0.2288278420
 C         -4.6245205151        0.9978661459       -0.2241486526
 C         -2.2706786627        0.4892200088       -0.9389323538
 Cl        -2.6813371612       -1.1316710452       -1.5570023094
 C         -3.0919657802       -0.1071839800        1.3673705821
 Cl        -1.4503983164       -0.2984874631        2.0117372721
 H         -2.7564086895        3.0124792247       -0.0965546445
 H         -1.6526145584        2.2418490271        1.0399497823
 H         -3.3024838645        2.6292767645        1.5371098893
 H         -4.7247293388        1.7334716579       -1.0181329146
 H         -5.2645097221        1.2953853377        0.6028951169
 H         -4.9663389624        0.0367270870       -0.5996297013
 H         -1.2250256992        0.4552937057       -0.6370573901
 H         -2.3844307391        1.1796059808       -1.7739627642
 H         -3.4050907477       -1.0927696099        1.0222911573
 H         -3.7159179369        0.2076595559        2.2041933152
