  34
        -49.84427018
 C          1.2338509761       -1.9157296872       -0.2132403125
 C          2.4812301263       -1.0436927652       -0.0516061389
 C          3.7376221113       -1.9046868964       -0.2128275502
 C          2.4398388756        0.0441893668       -1.1266182519
 Cl         3.8556935643        1.1237982083       -1.0544133120
 C          2.5195217433       -0.4190004888        1.3449589182
 Cl         1.1104461707        0.6092605851        1.6718992628
 H          1.2110557727       -2.3642478422       -1.2030756109
 H          0.3314602708       -1.3265757341       -0.0821745029
 H          1.2339160887       -2.7114241308        0.5277018281
 H          3.7674386987       -2.6795306139        0.5492906525
 H          4.6350912915       -1.2975572861       -0.1263799002
 H          3.7373302470       -2.3822713540       -1.1894012895
 H          1.5594859756        0.6746388407       -1.0071001854
 H          2.4369069532       -0.4010201779       -2.1209692247
 H          3.3983016695        0.2162470033        1.4590642614
 H          2.5197706189       -1.1940787525        2.1114456401
 C         -3.8069323971        1.2103239953        1.2619128433
 C         -3.2835259733        0.6055775142       -0.0439046484
 C         -4.2539366007        0.9223381883       -1.1859798062
 C         -1.9105721543        1.2186017080       -0.3260479439
 Cl        -1.1905319627        0.5982336573       -1.8325437793
 C         -3.1796498900       -0.9169131218        0.0778106874
 Cl        -2.1116380605       -1.4217269263        1.4117916060
 H         -3.1294784331        0.9942451527        2.0837261290
 H         -4.7835630208        0.7960791098        1.4998150901
 H         -3.9031856365        2.2889740682        1.1684435729
 H         -4.3607232107        1.9986148471       -1.2961070494
 H         -5.2336933202        0.4988161283       -0.9805304606
 H         -3.8905938103        0.5141222645       -2.1255660150
 H         -1.2081699945        0.9879617293        0.4749926915
 H         -1.9902298643        2.2988910960       -0.4441162251
 H         -2.7671909202       -1.3496300283       -0.8336552606
 H         -4.1580675982       -1.3512526164        0.2814306517
