  34
        -49.84470495
 C          2.3857635149       -2.4637394913        0.3429765662
 C          2.2787160583       -1.1258789958       -0.3937455638
 C          1.5591628345       -1.3328190258       -1.7295596989
 C          1.4904796616       -0.1645031446        0.4970184092
 Cl         1.2340603814        1.4187759643       -0.2751462341
 C          3.6708564091       -0.5628893922       -0.6901434741
 Cl         4.6348409804       -0.3116370084        0.7887232703
 H          1.3949717402       -2.8677473287        0.5343479339
 H          2.9010570341       -2.3415574636        1.2921151714
 H          2.9392862742       -3.1786765632       -0.2607848391
 H          0.5648002833       -1.7353525749       -1.5566139791
 H          2.1104179483       -2.0335722679       -2.3513389273
 H          1.4644809096       -0.3927320248       -2.2667944641
 H          2.0254046841        0.0303399229        1.4264469963
 H          0.5039802850       -0.5680745182        0.7210857893
 H          3.5974931995        0.4071134964       -1.1822376652
 H          4.2371870051       -1.2514077410       -1.3167495925
 C         -3.1873082305        2.3829204453       -0.4756207702
 C         -3.2963862679        0.8647154373       -0.3089652039
 C         -4.6583192910        0.3800738070       -0.8158027856
 C         -2.1703664635        0.2267157672       -1.1247066050
 Cl        -2.1227815642       -1.5446639031       -0.9404665965
 C         -3.1846551463        0.4839514687        1.1696498935
 Cl        -1.6313671330        0.9802509304        1.8865787612
 H         -3.2712389225        2.6564775803       -1.5242036082
 H         -2.2317924717        2.7414062384       -0.1018544004
 H         -3.9833453730        2.8778802281        0.0750290038
 H         -4.7905330146        0.6627951055       -1.8572459965
 H         -5.4617674757        0.8252552495       -0.2344828846
 H         -4.7355713194       -0.7017346259       -0.7395489598
 H         -1.1992381073        0.6054550878       -0.8087563381
 H         -2.3103509390        0.4227405991       -2.1874085283
 H         -3.2563517765       -0.5959708532        1.2985347596
 H         -3.9659110409        0.9753118450        1.7491096435
