  34
        -49.84444861
 C          2.3112414629       -2.3505095312        0.7242961302
 C          2.5106506545       -0.8660668429        0.4049166466
 C          3.9358244664       -0.6184170526       -0.0897576504
 C          1.4952890265       -0.4972874942       -0.6804895792
 Cl         1.5442983299        1.2316023768       -1.1041093404
 C          2.2178206769       -0.0150959054        1.6450706259
 Cl         3.2700414317       -0.4437695075        3.0124786335
 H          2.4741353588       -2.9552724367       -0.1643325476
 H          1.3023913580       -2.5322097183        1.0879931996
 H          3.0159366754       -2.6629785817        1.4897333007
 H          4.6500561839       -0.8564438093        0.6937461787
 H          4.0676497812        0.4235290035       -0.3724006016
 H          4.1490205152       -1.2421588864       -0.9547245541
 H          0.4797958602       -0.7061088262       -0.3460354541
 H          1.6992234518       -1.0449550150       -1.6002552812
 H          1.1904161629       -0.1595040947        1.9810429691
 H          2.3904295271        1.0415266832        1.4413805211
 C         -4.5180997510        0.3739216325       -1.5236719549
 C         -3.2473585426        0.7931859811       -0.7783098770
 C         -3.4229991865        2.2006165518       -0.2010120583
 C         -3.0138483381       -0.2184620603        0.3460588803
 Cl        -1.5578680108        0.1460714665        1.2996452831
 C         -2.0574022499        0.8253485842       -1.7400463709
 Cl        -1.6990047428       -0.7786900724       -2.4280126373
 H         -4.3938652285       -0.6087650152       -1.9714083339
 H         -4.7386157247        1.0875356431       -2.3134970944
 H         -5.3658582402        0.3408540070       -0.8439209894
 H         -4.2759191985        2.2249901428        0.4729792343
 H         -3.5942461653        2.9183885296       -0.9990385230
 H         -2.5368406920        2.5048300935        0.3502970900
 H         -2.8778671971       -1.2211964344       -0.0590151461
 H         -3.8497770385       -0.2128895603        1.0454813383
 H         -1.1519905835        1.1595893460       -1.2341061994
 H         -2.2665966439        1.4837598071       -2.5826212136
