  34
        -49.84475531
 C          4.5058363107        0.1930651804       -1.4189403993
 C          3.3579551633       -0.4483002610       -0.6330341624
 C          3.6138979943       -1.9489118658       -0.4681332901
 C          3.2900288255        0.2318846877        0.7370327801
 Cl         1.9799556723       -0.4159628414        1.7570000474
 C          2.0394211484       -0.2832015439       -1.3910351243
 Cl         1.5834538858        1.4277089342       -1.5847517687
 H          4.3231412887        1.2537886347       -1.5729344874
 H          4.6052476334       -0.2845464259       -2.3906302292
 H          5.4444790773        0.0792076843       -0.8825679054
 H          3.6681000150       -2.4338485256       -1.4394604518
 H          2.8153401596       -2.4126823652        0.1048826170
 H          4.5542482112       -2.1126387147        0.0522327928
 H          3.1029288244        1.3003990048        0.6304778358
 H          4.2185539462        0.0753638785        1.2855139019
 H          1.2220021112       -0.7715973669       -0.8616436874
 H          2.1219076838       -0.6956126738       -2.3963229115
 C         -2.0865424242        0.5286719808       -1.7985646022
 C         -2.4728573751        0.6861920270       -0.3250523517
 C         -2.6358391493        2.1723663753        0.0049876561
 C         -3.7884467303       -0.0625445837       -0.0989403445
 Cl        -4.3758847628        0.0813623120        1.5783019510
 C         -1.3747776451        0.1252441388        0.5795991146
 Cl        -1.0280678435       -1.5875656620        0.2401841658
 H         -1.9593636758       -0.5199934717       -2.0545804589
 H         -1.1525150791        1.0487661642       -1.9930880105
 H         -2.8565717329        0.9515333046       -2.4388232258
 H         -3.4156215615        2.6086946044       -0.6142641350
 H         -1.7064439124        2.7029060633       -0.1853715472
 H         -2.9071716822        2.3087147070        1.0484773648
 H         -3.6642135808       -1.1277523319       -0.2947272586
 H         -4.5736423155        0.3398371774       -0.7384212311
 H         -1.6697968946        0.1772284305        1.6275415556
 H         -0.4435286164        0.6705419570        0.4342720720
