  34
        -49.84459976
 C          2.3817597345       -1.4353931022        1.9916881406
 C          2.2347522173       -0.5085288245        0.7815366310
 C          1.4009304750       -1.1942931957       -0.3003358483
 C          1.5362516078        0.7637397042        1.2728416139
 Cl         1.2906037839        1.9624166681       -0.0231347863
 C          3.6125127292       -0.1219686628        0.2334767769
 Cl         4.5507377826       -1.5422023276       -0.2837831035
 H          1.4027688825       -1.6894145767        2.3897032672
 H          2.9639913743       -0.9589312866        2.7775055291
 H          2.8849243986       -2.3518244995        1.6969369561
 H          1.8931362083       -2.1050513467       -0.6297587615
 H          1.2755543154       -0.5423337292       -1.1615967251
 H          0.4208339511       -1.4541136303        0.0911094510
 H          2.1257579974        1.2630125519        2.0425080882
 H          0.5486463062        0.5220349129        1.6649408965
 H          4.2075692498        0.3820576538        0.9963699752
 H          3.5152504269        0.5211762200       -0.6412333507
 C         -4.4081131010        1.0361110994       -1.2293915890
 C         -3.1257622351        0.9343070268       -0.3981866776
 C         -2.8686177202        2.2592430734        0.3250842424
 C         -3.3182371798       -0.1991209295        0.6116818912
 Cl        -1.9104256180       -0.4211596529        1.6675491441
 C         -1.9262820587        0.6546335488       -1.3059824716
 Cl        -2.0765536314       -0.8952614314       -2.1743906067
 H         -4.5862011649        0.1127812091       -1.7745621021
 H         -4.3220073559        1.8485011410       -1.9464072300
 H         -5.2643158959        1.2322089625       -0.5886435545
 H         -3.7043734064        2.4987038142        0.9781808992
 H         -2.7511465134        3.0649758235       -0.3946024449
 H         -1.9640628102        2.2031225665        0.9249019767
 H         -3.4724835770       -1.1491149665        0.0995850432
 H         -4.1639046264        0.0102426440        1.2672034490
 H         -1.0055354817        0.6024331694       -0.7274431382
 H         -1.8346949597        1.4309311319       -2.0647465727
