  34
        -49.84420698
 C          4.2233073873       -1.0361138380       -1.2217489492
 C          3.3303407484       -0.6390339018       -0.0421611113
 C          3.9958432097       -1.0571275465        1.2720740304
 C          3.1407355362        0.8794881943       -0.0845251794
 Cl         2.1658050151        1.4818245304        1.2797264538
 C          1.9799558690       -1.3526422461       -0.1317278248
 Cl         1.1136522805       -0.9717905476       -1.6391664326
 H          3.7633766116       -0.7555134892       -2.1658082552
 H          4.3830742922       -2.1115139877       -1.2223371209
 H          5.1902435860       -0.5448705374       -1.1481998091
 H          4.9590361439       -0.5636185970        1.3758332743
 H          4.1553291476       -2.1321748168        1.2910142496
 H          3.3745321375       -0.7851365185        2.1211495467
 H          2.6221271901        1.1779620869       -0.9956974582
 H          4.1035409421        1.3864276267       -0.0261666799
 H          1.3243907527       -1.0553576467        0.6868477114
 H          2.1157256368       -2.4337588796       -0.1191511890
 C         -3.6049037616        2.0885198603       -0.2572723866
 C         -2.4252859369        1.1224054977       -0.1130983258
 C         -1.1135842380        1.8651043278       -0.3778842772
 C         -2.4473188068        0.5680752770        1.3131530464
 Cl        -1.1172767983       -0.5641635363        1.6248621648
 C         -2.5369200952       -0.0128452111       -1.1329032212
 Cl        -4.0413382833       -0.9491456080       -0.9442396021
 H         -3.5200875945        2.9005377026        0.4607220053
 H         -4.5477566607        1.5740268687       -0.0905557199
 H         -3.6166591557        2.5135117693       -1.2578183133
 H         -0.9884333658        2.6740787359        0.3376253993
 H         -1.1123309609        2.2854654492       -1.3803437883
 H         -0.2668959158        1.1919849850       -0.2860996595
 H         -3.3706989381        0.0186298137        1.4988396396
 H         -2.3427812172        1.3742649139        2.0394257377
 H         -1.7129566522       -0.7170835147       -1.0208136773
 H         -2.5415703323        0.3841850662       -2.1474972738
