  34
        -49.84422314
 C          3.5073652755        0.6530558151        1.9573476652
 C          3.1100453047       -0.0359696745        0.6488306124
 C          4.3069978950       -0.8075545710        0.0850864037
 C          1.9561971639       -0.9947302016        0.9511976961
 Cl         1.3841608016       -1.8463856183       -0.5072431446
 C          2.6899028246        1.0016639416       -0.3946616206
 Cl         1.3237653707        2.0007083983        0.1530755139
 H          3.8233056267       -0.0833264094        2.6917578231
 H          2.6701550296        1.2115693902        2.3680323538
 H          4.3309101449        1.3413031070        1.7826441080
 H          4.0350660661       -1.3182456853       -0.8348693830
 H          4.6432291213       -1.5496355389        0.8047450731
 H          5.1324960272       -0.1315155259       -0.1233438495
 H          1.0982685376       -0.4594859335        1.3583520682
 H          2.2735062128       -1.7632453267        1.6553416218
 H          2.3701384737        0.5130762137       -1.3150097672
 H          3.5099864975        1.6878138481       -0.6056707017
 C         -4.0874396592        0.6862408376       -1.2225613269
 C         -2.7686870265        0.7203283788       -0.4442374300
 C         -2.4502318111        2.1616077702       -0.0362813399
 C         -2.9330458833       -0.1649823775        0.7930569458
 Cl        -1.5064370636       -0.1287858043        1.8495223126
 C         -1.6198406615        0.2083525096       -1.3154284749
 Cl        -1.9089726435       -1.4438042414       -1.9180031442
 H         -4.3358787412       -0.3304542256       -1.5151049083
 H         -4.0032916287        1.2918445826       -2.1213364971
 H         -4.8974904551        1.0821557461       -0.6149388531
 H         -3.2287992043        2.5457950301        0.6184915155
 H         -2.3937035014        2.7982632062       -0.9153717909
 H         -1.4991393278        2.2157932050        0.4865370376
 H         -3.0795651572       -1.2058434681        0.5036047871
 H         -3.7736349673        0.1728055411        1.3995587908
 H         -0.6905594367        0.1747883054       -0.7483179278
 H         -1.4920647037        0.8431270241       -2.1915807885
