  34
        -49.84417090
 C          0.9702979010       -1.9267007448        0.6900954065
 C          2.1878103407       -1.0649892496        0.3442117204
 C          3.0806980383       -1.8120671901       -0.6505281152
 C          1.6784196549        0.2372173092       -0.2758920664
 Cl         3.0027291599        1.3310856716       -0.7493036186
 C          3.0122119175       -0.7760873585        1.6008084859
 Cl         2.0637260828        0.0604073541        2.8574780521
 H          0.3911896669       -2.1335686595       -0.2062626466
 H          0.3349221398       -1.4166469400        1.4089228676
 H          1.2918126958       -2.8714554058        1.1215520310
 H          2.5177223162       -2.0408224326       -1.5520475830
 H          3.4344489366       -2.7447569797       -0.2182409853
 H          3.9415409366       -1.2079940709       -0.9249535574
 H          1.0593694934        0.7848624324        0.4342631435
 H          1.1116041473        0.0253206855       -1.1813558569
 H          3.8575674572       -0.1291473283        1.3666653064
 H          3.3698397024       -1.7038219132        2.0467560037
 C         -4.2633798798       -0.5513462962       -1.5162007145
 C         -3.2503145032        0.4076930538       -0.8836943781
 C         -3.9195825399        1.7586242327       -0.6144510609
 C         -2.7609743961       -0.2165525979        0.4256673807
 Cl        -1.6116684723        0.8350181834        1.2930020678
 C         -2.0750239564        0.6473973912       -1.8338959789
 Cl        -1.2451102953       -0.8628050155       -2.2781265820
 H         -5.1114250225       -0.6978851345       -0.8523449748
 H         -3.8094647832       -1.5188054197       -1.7148140803
 H         -4.6285596493       -0.1423179848       -2.4550395467
 H         -4.7600501656        1.6290791459        0.0626752634
 H         -4.2878325500        2.1915572807       -1.5410396155
 H         -3.2170639353        2.4535843878       -0.1624364509
 H         -2.2424263912       -1.1561422276        0.2358463578
 H         -3.5972059558       -0.3872737814        1.1030022521
 H         -1.3282450648        1.2899351369       -1.3678471807
 H         -2.4192935168        1.0954049178       -2.7658012636
