  34
        -49.84524769
 C          1.9897844025       -0.7244419516       -1.8240045029
 C          2.7956775952       -0.6879821948       -0.5224025294
 C          3.1938408474       -2.1127700584       -0.1276040756
 C          4.0405086475        0.1717630170       -0.7556249517
 Cl         5.0807409234        0.2692188655        0.6899582022
 C          1.9470603698       -0.1125028604        0.6118979363
 Cl         1.3700181466        1.5339272656        0.2559027295
 H          1.0869759041       -1.3121742241       -1.6805848882
 H          2.5757609287       -1.1774141755       -2.6195769811
 H          1.7051455191        0.2779465001       -2.1330008771
 H          2.3069308025       -2.7225650749        0.0236336934
 H          3.7749949148       -2.1106956153        0.7905916497
 H          3.7937356601       -2.5635629298       -0.9141932242
 H          3.7632288168        1.1953483369       -1.0085396838
 H          4.6531135406       -0.2493692160       -1.5522558652
 H          2.5267095194       -0.0427767746        1.5323266511
 H          1.0630758423       -0.7284198467        0.7723900847
 C         -3.0569156591        2.0928170695       -0.2732495303
 C         -2.7107506021        0.6174994273       -0.4919819690
 C         -1.7783684762        0.4866229860       -1.6995419577
 C         -2.0186791726        0.1108933337        0.7740317596
 Cl        -1.4589764291       -1.5720312536        0.6117562978
 C         -3.9754210434       -0.1967947757       -0.7754019319
 Cl        -5.1685732501       -0.0844199826        0.5455892362
 H         -3.7100123218        2.2136034007        0.5868900073
 H         -3.5632551005        2.4904766077       -1.1491311731
 H         -2.1505791841        2.6691674783       -0.1066258179
 H         -0.8545760270        1.0258251411       -1.5085242889
 H         -2.2476120549        0.9036418175       -2.5867521812
 H         -1.5391351176       -0.5557310353       -1.8930588698
 H         -2.7025905862        0.1280437587        1.6226046166
 H         -1.1395091320        0.7154873398        0.9918049055
 H         -3.7374444569       -1.2545768198       -0.8900602965
 H         -4.4716898303        0.1669802112       -1.6745790880
