  34
        -49.84551651
 C          1.8016358905       -0.7809329864       -1.6342209961
 C          2.7362317729       -0.6795628919       -0.4255927295
 C          3.1810971249       -2.0828970048       -0.0046283530
 C          3.9446586078        0.1694598189       -0.8272490907
 Cl         5.1309585760        0.3345955471        0.4944540385
 C          2.0054533601       -0.0507309817        0.7613566677
 Cl         1.3746981486        1.5706676751        0.3876383315
 H          2.3020787729       -1.2828676590       -2.4582189702
 H          1.4905201963        0.2054322858       -1.9679950867
 H          0.9165011130       -1.3513642488       -1.3657048247
 H          2.3163871344       -2.6882479342        0.2545614650
 H          3.8446502269       -2.0366199660        0.8548257111
 H          3.7092752872       -2.5671832699       -0.8220514713
 H          3.6364310061        1.1800414461       -1.0963270545
 H          4.4722334586       -0.2876344345       -1.6638542814
 H          2.6777714722        0.0691335899        1.6109640525
 H          1.1505955333       -0.6633064838        1.0443944409
 C         -1.8020546150        0.7767132602       -1.6368475398
 C         -2.7356669959        0.6782777468       -0.4272201294
 C         -3.1780949975        2.0828268114       -0.0077339948
 C         -3.9456317200       -0.1696589601       -0.8265815770
 Cl        -5.1314216503       -0.3304314599        0.4960688366
 C         -2.0047368092        0.0500792741        0.7599658752
 Cl        -1.3754365408       -1.5721824866        0.3875442682
 H         -1.4923236662       -0.2105002693       -1.9693943951
 H         -0.9160629461        1.3466074557       -1.3700137468
 H         -2.3027174082        1.2779360825       -2.4611476619
 H         -3.7076514852        2.5661929852       -0.8248013064
 H         -2.3121335884        2.6877063898        0.2483629624
 H         -3.8397093382        2.0388279022        0.8533298561
 H         -3.6390695075       -1.1812175482       -1.0938797746
 H         -4.4729604132        0.2866030389       -1.6637983994
 H         -2.6767374924       -0.0684298400        1.6100080149
 H         -1.1492756365        0.6622785850        1.0419493999
