#T wB97XD/def2svpp opt=tight freq int(grid=ultrafine) scf=(verytight,qc)

Comment gs min

0 1
C          1.10428        0.01650       -0.04489
C          2.62681        0.01640       -0.04481
Cl         3.22880        0.93435        1.36297
Cl         3.22882       -1.66174        0.04634
Cl         3.22874        0.77654       -1.54365
H          0.70356       -0.44529        0.86555
H          0.70347       -0.54105       -0.89952
H          0.70346        1.03526       -0.10005
