  15
        -20.14850303
 C         -1.4814635376       -0.8564601981       -0.7743761306
 C         -0.6899948853        0.3711955478       -0.3203326887
 C         -1.3283859757        1.0028924353        0.9153298967
 C          0.7250691702       -0.0782727525        0.0283973333
 N          1.6894780729        0.3739202727       -0.8092755422
 O          0.9818130072       -0.7922754257        0.9703119223
 H         -2.5133526827       -0.5848783360       -0.9853161636
 H         -1.4688158112       -1.6081125002        0.0109120225
 H         -1.0438054215       -1.2876934003       -1.6725848986
 H         -0.6571056126        1.1046259470       -1.1326955359
 H         -2.3677124275        1.2560984126        0.7192729389
 H         -0.7960911792        1.9074286985        1.2020911842
 H         -1.2844442532        0.3007388611        1.7439483107
 H          1.4908146623        0.9583694802       -1.6006425001
 H          2.6432845452        0.0979302947       -0.6420534824
