  15
        -20.14697428
 C         -1.4185057390       -0.3830157223       -1.2121418713
 C         -0.6781814488        0.4530604084       -0.1677794804
 C         -1.4452930011        0.4680793921        1.1531599638
 C          0.7545596383       -0.0170973084        0.0904044788
 N          1.4182102911       -0.4945238452       -0.9889794971
 O          1.2894294038        0.0568211661        1.1736601442
 H         -2.4708248467       -0.1067201603       -1.2136927710
 H         -1.3470477410       -1.4424877824       -0.9751962943
 H         -1.0374570050       -0.2187159315       -2.2182525510
 H         -0.5931024871        1.4850193737       -0.5322920857
 H         -0.8635129204        0.9833214142        1.9121272932
 H         -1.6216753664       -0.5494812697        1.4941794566
 H         -2.4023609603        0.9702414851        1.0350832300
 H          1.0055170812       -0.5651608212       -1.8997283384
 H          2.3706124216       -0.7946411265       -0.8641945553
