  15
        -20.14846087
 C         -1.6078929118       -0.8851526464        0.4394721119
 C         -0.7343238474        0.0252881075       -0.4239878574
 C         -1.1227697666        1.4947366016       -0.2582570285
 C          0.7447399943       -0.1853953609       -0.1145152178
 N          1.1136565851        0.1102264344        1.1530957961
 O          1.5390033411       -0.5865377037       -0.9348344216
 H         -1.5463821249       -0.6141684675        1.4917391091
 H         -1.2981497709       -1.9219933408        0.3316193350
 H         -2.6474476083       -0.8028798680        0.1295348973
 H         -0.8646990727       -0.2557858571       -1.4734167369
 H         -1.0514221424        1.8101879457        0.7809137872
 H         -2.1485589431        1.6456290564       -0.5876714604
 H         -0.4728347518        2.1289052895       -0.8566139514
 H          0.4626808602        0.4420607711        1.8401839447
 H          2.0770797939       -0.0094155235        1.4165447173
