  15
        -20.14848994
 C         -1.4928027809       -0.8758171171       -0.7440845058
 C         -0.6914783946        0.3592466752       -0.3309563568
 C         -1.3164132874        1.0281875560        0.8926791892
 C          0.7242924422       -0.0836546893        0.0230264818
 N          1.6960374702        0.4128383850       -0.7801539591
 O          0.9759933363       -0.8256566839        0.9445286840
 H         -2.5276061693       -0.6069521851       -0.9439549715
 H         -1.4673793510       -1.6095794482        0.0576821111
 H         -1.0704032346       -1.3276306158       -1.6394369109
 H         -0.6616814898        1.0705391391       -1.1627698727
 H         -1.2722122174        0.3476342761        1.7390913992
 H         -2.3553738595        1.2834280094        0.6972437093
 H         -0.7763792932        1.9364145860        1.1519504253
 H          1.5029730538        1.0256168852       -1.5512209379
 H          2.6514466791        0.1498531515       -0.6015215352
