  15
        -20.14861885
 C         -1.5785490191       -0.9838138430       -0.4889519297
 C         -0.6983211554        0.2583966364       -0.3990708295
 C         -1.2234635339        1.2245584808        0.6668239196
 C          0.7226973666       -0.1368704200       -0.0085975302
 N          1.6813821880        0.6851597625       -0.5019321696
 O          0.9915161304       -1.0772086635        0.7018850177
 H         -2.6154247651       -0.7057948872       -0.6624978326
 H         -1.5099322218       -1.5450680588        0.4392612164
 H         -1.2468703159       -1.6273114659       -1.3004585504
 H         -0.6772149092        0.7675608412       -1.3685846206
 H         -2.2401104899        1.5300358824        0.4293471963
 H         -0.5994517692        2.1139983353        0.7295411586
 H         -1.2255948027        0.7352909070        1.6378830390
 H          1.4683547335        1.4776050076       -1.0798040678
 H          2.6415923250        0.5145523896       -0.2526482835
  15
        -20.14850303
 C         -1.4814635376       -0.8564601981       -0.7743761306
 C         -0.6899948853        0.3711955478       -0.3203326887
 C         -1.3283859757        1.0028924353        0.9153298967
 C          0.7250691702       -0.0782727525        0.0283973333
 N          1.6894780729        0.3739202727       -0.8092755422
 O          0.9818130072       -0.7922754257        0.9703119223
 H         -2.5133526827       -0.5848783360       -0.9853161636
 H         -1.4688158112       -1.6081125002        0.0109120225
 H         -1.0438054215       -1.2876934003       -1.6725848986
 H         -0.6571056126        1.1046259470       -1.1326955359
 H         -2.3677124275        1.2560984126        0.7192729389
 H         -0.7960911792        1.9074286985        1.2020911842
 H         -1.2844442532        0.3007388611        1.7439483107
 H          1.4908146623        0.9583694802       -1.6006425001
 H          2.6432845452        0.0979302947       -0.6420534824
  15
        -20.14848994
 C         -1.4928027809       -0.8758171171       -0.7440845058
 C         -0.6914783946        0.3592466752       -0.3309563568
 C         -1.3164132874        1.0281875560        0.8926791892
 C          0.7242924422       -0.0836546893        0.0230264818
 N          1.6960374702        0.4128383850       -0.7801539591
 O          0.9759933363       -0.8256566839        0.9445286840
 H         -2.5276061693       -0.6069521851       -0.9439549715
 H         -1.4673793510       -1.6095794482        0.0576821111
 H         -1.0704032346       -1.3276306158       -1.6394369109
 H         -0.6616814898        1.0705391391       -1.1627698727
 H         -1.2722122174        0.3476342761        1.7390913992
 H         -2.3553738595        1.2834280094        0.6972437093
 H         -0.7763792932        1.9364145860        1.1519504253
 H          1.5029730538        1.0256168852       -1.5512209379
 H          2.6514466791        0.1498531515       -0.6015215352
  15
        -20.14846087
 C         -1.6078929118       -0.8851526464        0.4394721119
 C         -0.7343238474        0.0252881075       -0.4239878574
 C         -1.1227697666        1.4947366016       -0.2582570285
 C          0.7447399943       -0.1853953609       -0.1145152178
 N          1.1136565851        0.1102264344        1.1530957961
 O          1.5390033411       -0.5865377037       -0.9348344216
 H         -1.5463821249       -0.6141684675        1.4917391091
 H         -1.2981497709       -1.9219933408        0.3316193350
 H         -2.6474476083       -0.8028798680        0.1295348973
 H         -0.8646990727       -0.2557858571       -1.4734167369
 H         -1.0514221424        1.8101879457        0.7809137872
 H         -2.1485589431        1.6456290564       -0.5876714604
 H         -0.4728347518        2.1289052895       -0.8566139514
 H          0.4626808602        0.4420607711        1.8401839447
 H          2.0770797939       -0.0094155235        1.4165447173
  15
        -20.14697428
 C         -1.4185057390       -0.3830157223       -1.2121418713
 C         -0.6781814488        0.4530604084       -0.1677794804
 C         -1.4452930011        0.4680793921        1.1531599638
 C          0.7545596383       -0.0170973084        0.0904044788
 N          1.4182102911       -0.4945238452       -0.9889794971
 O          1.2894294038        0.0568211661        1.1736601442
 H         -2.4708248467       -0.1067201603       -1.2136927710
 H         -1.3470477410       -1.4424877824       -0.9751962943
 H         -1.0374570050       -0.2187159315       -2.2182525510
 H         -0.5931024871        1.4850193737       -0.5322920857
 H         -0.8635129204        0.9833214142        1.9121272932
 H         -1.6216753664       -0.5494812697        1.4941794566
 H         -2.4023609603        0.9702414851        1.0350832300
 H          1.0055170812       -0.5651608212       -1.8997283384
 H          2.3706124216       -0.7946411265       -0.8641945553
