  15
  -20.148618849999998        3.3725942664631310E-002 !mtd4
 C         -1.5785490191       -0.9838138430       -0.4889519297
 C         -0.6983211554        0.2583966364       -0.3990708295
 C         -1.2234635339        1.2245584808        0.6668239196
 C          0.7226973666       -0.1368704200       -0.0085975302
 N          1.6813821880        0.6851597625       -0.5019321696
 O          0.9915161304       -1.0772086635        0.7018850177
 H         -2.6154247651       -0.7057948872       -0.6624978326
 H         -1.5099322218       -1.5450680588        0.4392612164
 H         -1.2468703159       -1.6273114659       -1.3004585504
 H         -0.6772149092        0.7675608412       -1.3685846206
 H         -2.2401104899        1.5300358824        0.4293471963
 H         -0.5994517692        2.1139983353        0.7295411586
 H         -1.2255948027        0.7352909070        1.6378830390
 H          1.4683547335        1.4776050076       -1.0798040678
 H          2.6415923250        0.5145523896       -0.2526482835
  15
  -20.148618840000001        3.3725585780431319E-002 !gc
 C         -1.4270505243       -0.7312552706       -0.9327764668
 C         -0.6808951980        0.4258256101       -0.2621495859
 C         -1.3866548060        0.8594865354        1.0183921071
 C          0.7312496087       -0.0549154163        0.0584369461
 N          1.6249419328        0.1470971941       -0.9408919125
 O          1.0417710471       -0.5984147977        1.0925724760
 H         -1.4686590636       -1.5826457550       -0.2576759924
 H         -0.9266654723       -1.0406503173       -1.8484003092
 H         -2.4437946008       -0.4315845208       -1.1772660198
 H         -0.6247972491        1.2701156662       -0.9576334625
 H         -0.8971631527        1.7311950181        1.4463282352
 H         -1.3437291857        0.0541201821        1.7469268527
 H         -2.4269084036        1.1041084721        0.8172632790
 H          1.3747306676        0.5840719702       -1.8090553831
 H          2.5686959882       -0.1818913598       -0.8211383159
  15
  -20.148618840000001        3.3725585780431319E-002 !mtd2
 C         -1.4271791379       -0.7308318275       -0.9331224467
 C         -0.6808624218        0.4258095169       -0.2620173280
 C         -1.3866472418        0.8592018346        1.0185811693
 C          0.7312825472       -0.0551295410        0.0584400522
 N          1.6248343623        0.1469033499       -0.9410601629
 O          1.0420566742       -0.5978662172        1.0929403077
 H         -1.4685163226       -1.5827440951       -0.2586383478
 H         -0.9272627967       -1.0395776150       -1.8492296338
 H         -2.4440416762       -0.4310714822       -1.1769612996
 H         -0.6245235879        1.2703943957       -0.9571336094
 H         -2.4265263818        1.1053153111        0.8172328589
 H         -0.8961945203        1.7298884373        1.4474552353
 H         -1.3450352204        0.0531824008        1.7464519362
 H          1.3732223077        0.5800431548       -1.8108061748
 H          2.5682079973       -0.1835153778       -0.8222660252
  15
  -20.148618840000001        3.3725585780431319E-002 !mtd4
 C         -1.4269539560       -0.7306154415       -0.9333100044
 C         -0.6808017843        0.4259639367       -0.2618429036
 C         -1.3869746250        0.8589668883        1.0186748904
 C          0.7313326286       -0.0550126317        0.0585065229
 N          1.6246996800        0.1463287292       -0.9412826809
 O          1.0421569860       -0.5976331480        1.0929924968
 H         -0.9265023523       -1.0393564862       -1.8491009841
 H         -2.4436786355       -0.4307926999       -1.1777107278
 H         -1.4685943886       -1.5825027162       -0.2588136998
 H         -0.6245367499        1.2707022029       -0.9567583202
 H         -1.3458518269        0.0525758263        1.7461845722
 H         -2.4267028115        1.1055057790        0.8170515738
 H         -0.8964035041        1.7293377470        1.4480953430
 H          1.3734878255        0.5809893862       -1.8103266992
 H          2.5682900586       -0.1832704040       -0.8220047309
  15
  -20.148618830000000        3.3725228899881055E-002 !mtd6
 C         -1.4266695161       -0.7301917989       -0.9338700368
 C         -0.6807923317        0.4261909407       -0.2616868563
 C         -1.3870693667        0.8584417442        1.0190269172
 C          0.7313008179       -0.0548547567        0.0586422343
 N          1.6243215320        0.1454113707       -0.9416845858
 O          1.0423756314       -0.5968992001        1.0933655604
 H         -1.4682783125       -1.5824577589       -0.2598480010
 H         -0.9261501678       -1.0383809058       -1.8498284487
 H         -2.4434275569       -0.4304033553       -1.1781327112
 H         -0.6244198585        1.2712835525       -0.9561708341
 H         -1.3444772789        0.0522976176        1.7467125510
 H         -2.4272331298        1.1033533275        0.8177429650
 H         -0.8977004629        1.7296406377        1.4481078156
 H          1.3731442844        0.5800273283       -1.8107696266
 H          2.5678402440       -0.1844510115       -0.8225322275
  15
  -20.148618830000000        3.3725228899881055E-002 !mtd12
 C         -1.5785520998       -0.9840757992       -0.4882922792
 C         -0.6983558825        0.2582167852       -0.3990941550
 C         -1.2234141665        1.2252051877        0.6659932340
 C          0.7227117764       -0.1370020459       -0.0084652608
 N          1.6811822503        0.6856641985       -0.5012427281
 O          0.9917595372       -1.0780583370        0.7009559895
 H         -1.2463767837       -1.6285516517       -1.2987800470
 H         -2.6152402416       -0.7061300842       -0.6628299545
 H         -1.5107156965       -1.5442881771        0.4405664659
 H         -0.6770170995        0.7666892976       -1.3689768423
 H         -0.5989307473        2.1143443289        0.7289438505
 H         -1.2267266483        0.7364221910        1.6373198400
 H         -2.2397159282        1.5313432347        0.4276592604
 H          1.4674709301        1.4805845167       -1.0754383734
 H          2.6412052043        0.5160597127       -0.2505187337
  15
  -20.148618830000000        3.3725228899881055E-002 !mtd1
 C         -1.5787987966       -0.9843676493       -0.4873279237
 C         -0.6983596801        0.2578172094       -0.3992551469
 C         -1.2230357446        1.2259369381        0.6651197515
 C          0.7226182447       -0.1371358669       -0.0085501921
 N          1.6809453100        0.6864699677       -0.5000398854
 O          0.9919392496       -1.0788047486        0.6999471118
 H         -1.5120543561       -1.5431362942        0.4424585626
 H         -1.2460561739       -1.6302734542       -1.2964467127
 H         -2.6152123135       -0.7063651096       -0.6633489716
 H         -0.6771665654        0.7654993585       -1.3695477282
 H         -0.5986647973        2.1152291424        0.7268583585
 H         -1.2257010724        0.7380499688        1.6368747510
 H         -2.2394970470        1.5315490793        0.4270171456
 H          1.4672631940        1.4808733319       -1.0749482147
 H          2.6410722163        0.5168123593       -0.2498248944
  15
  -20.148618809999999        3.3724515150109893E-002 !mtd4
 C         -1.4271402520       -0.7310836597       -0.9328175136
 C         -0.6808105119        0.4258507181       -0.2620558660
 C         -1.3866557979        0.8595468810        1.0184211894
 C          0.7312456517       -0.0551131751        0.0584237422
 N          1.6249606221        0.1472930866       -0.9408911754
 O          1.0419157289       -0.5982774758        1.0927168886
 H         -0.9277616543       -1.0394477702       -1.8493446281
 H         -2.4443354722       -0.4317536887       -1.1758076634
 H         -1.4675093556       -1.5830788313       -0.2583788560
 H         -0.6245017215        1.2702583963       -0.9573599894
 H         -2.4262785748        1.1064226047        0.8168061119
 H         -0.8957536696        1.7298063715        1.4475991177
 H         -1.3458285637        0.0533695423        1.7461534085
 H          1.3731906955        0.5798460504       -1.8108558695
 H          2.5680504994       -0.1841922057       -0.8225823154
  15
  -20.148618809999999        3.3724515150109893E-002 !mtd10
 C         -1.5791204967       -0.9844545182       -0.4863860832
 C         -0.6983363296        0.2575360341       -0.3994724258
 C         -1.2228543386        1.2263857106        0.6642879147
 C          0.7226971232       -0.1373973533       -0.0087401987
 N          1.6807898612        0.6872371127       -0.4990068911
 O          0.9921450586       -1.0794884321        0.6991499746
 H         -1.2460811620       -1.6313533442       -1.2945671360
 H         -2.6153362493       -0.7062835271       -0.6633137200
 H         -1.5130841037       -1.5421405637        0.4440893019
 H         -0.6771766019        0.7644649776       -1.3701787824
 H         -2.2390559726        1.5326090754        0.4257480225
 H         -0.5978741138        2.1152606178        0.7257024789
 H         -1.2261005454        0.7390338655        1.6363418705
 H          1.4671656656        1.4815444112       -1.0740643959
 H          2.6408730310        0.5174487793       -0.2488243598
  15
  -20.148618800000001        3.3724158281015701E-002 !mtd2
 C         -1.4268630637       -0.7307788270       -0.9332018589
 C         -0.6808303893        0.4260550394       -0.2619258777
 C         -1.3867673423        0.8591640170        1.0186841786
 C          0.7312287998       -0.0550781813        0.0584703092
 N          1.6247225866        0.1466251833       -0.9411843429
 O          1.0420244514       -0.5977128672        1.0929777498
 H         -0.9267493716       -1.0394442656       -1.8492207140
 H         -2.4437446549       -0.4312137977       -1.1771599075
 H         -1.4680851469       -1.5826526858       -0.2586664210
 H         -0.6245079865        1.2707025553       -0.9569456541
 H         -0.8974155733        1.7307460701        1.4470418796
 H         -1.3438833266        0.0535231007        1.7469242224
 H         -2.4270187026        1.1037796501        0.8175034120
 H          1.3729329947        0.5788878973       -1.8112220881
 H          2.5677897908       -0.1847008499       -0.8227500008
  15
  -20.148618790000000        3.3723801415571082E-002 !md8
 C         -1.4273698473       -0.7321289134       -0.9318832278
 C         -0.6809383711        0.4255273106       -0.2625128959
 C         -1.3861325700        0.8604659251        1.0179061617
 C          0.7311674873       -0.0551089221        0.0582614682
 N          1.6254430216        0.1487591718       -0.9402085732
 O          1.0412505741       -0.5996120309        1.0920132741
 H         -2.4448656698       -0.4333545362       -1.1742160808
 H         -1.4668600824       -1.5836830030       -0.2568464891
 H         -0.9286564765       -1.0409355065       -1.8486100341
 H         -0.6249104705        1.2692996202       -0.9586503758
 H         -0.8944179215        1.7305404723        1.4465704870
 H         -1.3459673893        0.0546385465        1.7460740508
 H         -2.4255214642        1.1082041806        0.8161686390
 H          1.3743249699        0.5837097243       -1.8092561158
 H          2.5689574633       -0.1810710268       -0.8209377377
  15
  -20.148618780000000        3.3723444553902776E-002 !mtd10
 C         -1.5780407761       -0.9834143015       -0.4907856094
 C         -0.6982724003        0.2589903123       -0.3987672208
 C         -1.2239474920        1.2233862749        0.6684646226
 C          0.7226712325       -0.1365584098       -0.0083872279
 N          1.6817196285        0.6837198389       -0.5040817836
 O          0.9911548055       -1.0758473096        0.7036747035
 H         -2.6148929098       -0.7054004551       -0.6643106248
 H         -1.5096965608       -1.5458376275        0.4367013639
 H         -1.2459218188       -1.6257522581       -1.3030112433
 H         -0.6770338377        0.7696441330       -1.3674866686
 H         -1.2290245974        0.7315908390        1.6382513906
 H         -2.2395225973        1.5314031531        0.4296262671
 H         -0.5984083245        2.1115143869        0.7349114304
 H          1.4685485004        1.4766941169       -1.0812385010
 H          2.6417872477        0.5138278314       -0.2537651503
  15
  -20.148618780000000        3.3723444553902776E-002 !mtd3
 C         -1.5784438352       -0.9837942964       -0.4895058000
 C         -0.6983006610        0.2584528076       -0.3991067444
 C         -1.2233202670        1.2242078894        0.6672280284
 C          0.7226748288       -0.1368701723       -0.0085467523
 N          1.6813666306        0.6848960014       -0.5025182297
 O          0.9913441374       -1.0768626776        0.7023605523
 H         -1.5099609333       -1.5453613603        0.4384988814
 H         -1.2467995613       -1.6270385201       -1.3012133612
 H         -2.6152727290       -0.7056738713       -0.6629873892
 H         -0.6772176059        0.7680382872       -1.3683878450
 H         -2.2402399725        1.5293150163        0.4304229204
 H         -0.5996231147        2.1139039334        0.7299263121
 H         -1.2246544270        0.7346567597        1.6381584369
 H          1.4676116238        1.4786483706       -1.0781462302
 H          2.6415145176        0.5158263000       -0.2520291101
  15
  -20.148618740000000        3.3722017145118632E-002 !mtd4
 C         -1.5780389642       -0.9833893943       -0.4907508720
 C         -0.6983039494        0.2590260850       -0.3986726854
 C         -1.2239369694        1.2234404410        0.6685365372
 C          0.7226578987       -0.1365828206       -0.0084632533
 N          1.6817072154        0.6837295426       -0.5039579738
 O          0.9911498612       -1.0757169835        0.7037466668
 H         -1.5125555696       -1.5439815058        0.4380277004
 H         -1.2436316535       -1.6274225094       -1.3006981909
 H         -2.6142990616       -0.7054911079       -0.6679186628
 H         -0.6772293584        0.7696371848       -1.3674184697
 H         -1.2263194572        0.7325600603        1.6387911016
 H         -2.2405625012        1.5291940671        0.4312327331
 H         -0.6000162470        2.1128473604        0.7329761845
 H          1.4690678702        1.4745998995       -1.0841495814
 H          2.6420199432        0.5124593216       -0.2555190067
  15
  -20.148618700000000        3.3720589796752277E-002 !md5
 C         -1.5777329665       -0.9830923780       -0.4920503820
 C         -0.6983011503        0.2594115292       -0.3986142203
 C         -1.2241581276        1.2224085125        0.6697982009
 C          0.7226272854       -0.1362626324       -0.0083515909
 N          1.6820091106        0.6826000189       -0.5054601887
 O          0.9907732170       -1.0745187224        0.7050233857
 H         -1.2463959468       -1.6237492598       -1.3059329286
 H         -2.6149033065       -0.7051608559       -0.6637321446
 H         -1.5079537098       -1.5471552028        0.4343191566
 H         -0.6771529420        0.7710890552       -1.3667753871
 H         -1.2252825293        0.7308763325        1.6397381525
 H         -2.2412532475        1.5273067187        0.4334510310
 H         -0.6011311089        2.1124232921        0.7343269773
 H          1.4694784033        1.4739165755       -1.0849979649
 H          2.6421722268        0.5118807403       -0.2560399400
  15
  -20.148618670000001        3.3719519325156842E-002 !gc
 C         -1.4280650485       -0.7352415016       -0.9283355160
 C         -0.6811097784        0.4247343174       -0.2636686364
 C         -1.3853071032        0.8638876476        1.0158725052
 C          0.7309812640       -0.0555197017        0.0575948361
 N          1.6272917559        0.1539287862       -0.9378098165
 O          1.0393934703       -0.6043779321        1.0894808859
 H         -2.4458886662       -0.4375081076       -1.1706282533
 H         -1.4664490939       -1.5846053309       -0.2504782644
 H         -0.9300246633       -1.0466709739       -1.8445384749
 H         -0.6257472357        1.2660722753       -0.9627193974
 H         -1.3408196457        0.0617289450        1.7478408297
 H         -2.4260169227        1.1069211050        0.8151137201
 H         -0.8957912332        1.7378972731        1.4391111833
 H          1.3783655210        0.5932331226       -1.8051527191
 H          2.5709523284       -0.1752463540       -0.8177143058
  15
  -20.148618639999999        3.3718448887417117E-002 !mtd3
 C         -1.4278198067       -0.7341269887       -0.9294915338
 C         -0.6809391756        0.4249238561       -0.2631940218
 C         -1.3858045560        0.8627988281        1.0164512057
 C          0.7311616212       -0.0554938497        0.0579032589
 N          1.6265936947        0.1522649443       -0.9387192307
 O          1.0401085158       -0.6031051012        1.0903378555
 H         -2.4449871650       -0.4354548508       -1.1730320767
 H         -1.4679141479       -1.5838415680       -0.2522287838
 H         -0.9288936874       -1.0454755301       -1.8451557889
 H         -0.6253552958        1.2671442738       -0.9612046999
 H         -2.4256337210        1.1093156906        0.8148114591
 H         -0.8944111680        1.7343688790        1.4425351517
 H         -1.3448134970        0.0587519265        1.7466297971
 H          1.3769404321        0.5925739247       -1.8054114339
 H          2.5708221304       -0.1755163992       -0.8195263236
  15
  -20.148618630000001        3.3718092082515451E-002 !mtd3
 C         -1.5798224186       -0.9852042876       -0.4834020341
 C         -0.6983723873        0.2565258271       -0.3999371894
 C         -1.2220682750        1.2284698309        0.6614152240
 C          0.7227448993       -0.1379519668       -0.0089345857
 N          1.6801038787        0.6896556223       -0.4955688503
 O          0.9927867262       -1.0820322524        0.6960348761
 H         -2.6160696836       -0.7069862811       -0.6601184761
 H         -1.5132573822       -1.5409191331        0.4482327591
 H         -1.2477081119       -1.6340760848       -1.2903827378
 H         -0.6772259754        0.7609381734       -1.3719560919
 H         -0.5971961098        2.1176192015        0.7197851772
 H         -1.2245681908        0.7440025787        1.6349099199
 H         -2.2384907965        1.5338715191        0.4227768152
 H          1.4657241024        1.4851985569       -1.0686713933
 H          2.6403269554        0.5204530027       -0.2454438290
  15
  -20.148503030000001        2.9835746651088384E-002 !gc
 C         -1.4814635376       -0.8564601981       -0.7743761306
 C         -0.6899948853        0.3711955478       -0.3203326887
 C         -1.3283859757        1.0028924353        0.9153298967
 C          0.7250691702       -0.0782727525        0.0283973333
 N          1.6894780729        0.3739202727       -0.8092755422
 O          0.9818130072       -0.7922754257        0.9703119223
 H         -2.5133526827       -0.5848783360       -0.9853161636
 H         -1.4688158112       -1.6081125002        0.0109120225
 H         -1.0438054215       -1.2876934003       -1.6725848986
 H         -0.6571056126        1.1046259470       -1.1326955359
 H         -2.3677124275        1.2560984126        0.7192729389
 H         -0.7960911792        1.9074286985        1.2020911842
 H         -1.2844442532        0.3007388611        1.7439483107
 H          1.4908146623        0.9583694802       -1.6006425001
 H          2.6432845452        0.0979302947       -0.6420534824
  15
  -20.148496160000001        2.9619633285134676E-002 !gc
 C         -1.5198359120       -0.9151691184       -0.6731916058
 C         -0.6943016925        0.3301672964       -0.3541055049
 C         -1.2877439935        1.0859550065        0.8356909969
 C          0.7230097409       -0.0982857747        0.0114849391
 N          1.7034133753        0.4999071944       -0.7076416764
 O          0.9698588995       -0.9008276228        0.8820846077
 H         -2.5576248602       -0.6468948992       -0.8571278642
 H         -1.4751541727       -1.6035855824        0.1668543736
 H         -1.1279756716       -1.4202780503       -1.5536064651
 H         -0.6696123235        0.9885274864       -1.2286547748
 H         -0.7168798959        1.9889923222        1.0427351381
 H         -1.2623403421        0.4516844699        1.7181898797
 H         -2.3190608172        1.3645653695        0.6312629367
 H          1.5145406099        1.1660324270       -1.4342140984
 H          2.6617999773        0.2649926806       -0.5071321241
  15
  -20.148496040000001        2.9615872322774569E-002 !mtd3
 C         -1.4865049576       -0.8651611344       -0.7609537216
 C         -0.6906945534        0.3659474023       -0.3250543034
 C         -1.3233229843        1.0141986495        0.9053482506
 C          0.7246113081       -0.0805461313        0.0260349048
 N          1.6926823561        0.3911675682       -0.7965135482
 O          0.9791923485       -0.8072225783        0.9588574048
 H         -1.4713425092       -1.6072422699        0.0332794522
 H         -1.0532849827       -1.3078580316       -1.6557146972
 H         -2.5187932374       -0.5942592627       -0.9708173534
 H         -0.6590216352        1.0895661497       -1.1461310310
 H         -2.3628408536        1.2671800509        0.7098309249
 H         -0.7882859236        1.9211194112        1.1795681981
 H         -1.2782958060        0.3218038683        1.7421678257
 H          1.4982557166        0.9894491622       -1.5784526243
 H          2.6469887844        0.1209214285       -0.6229057495
  15
  -20.148489940000001        2.9425317881544281E-002 !mtd13
 C         -1.4928027809       -0.8758171171       -0.7440845058
 C         -0.6914783946        0.3592466752       -0.3309563568
 C         -1.3164132874        1.0281875560        0.8926791892
 C          0.7242924422       -0.0836546893        0.0230264818
 N          1.6960374702        0.4128383850       -0.7801539591
 O          0.9759933363       -0.8256566839        0.9445286840
 H         -2.5276061693       -0.6069521851       -0.9439549715
 H         -1.4673793510       -1.6095794482        0.0576821111
 H         -1.0704032346       -1.3276306158       -1.6394369109
 H         -0.6616814898        1.0705391391       -1.1627698727
 H         -1.2722122174        0.3476342761        1.7390913992
 H         -2.3553738595        1.2834280094        0.6972437093
 H         -0.7763792932        1.9364145860        1.1519504253
 H          1.5029730538        1.0256168852       -1.5512209379
 H          2.6514466791        0.1498531515       -0.6015215352
  15
  -20.148460870000001        2.8533925054533067E-002 !md7
 C         -1.6078929118       -0.8851526464        0.4394721119
 C         -0.7343238474        0.0252881075       -0.4239878574
 C         -1.1227697666        1.4947366016       -0.2582570285
 C          0.7447399943       -0.1853953609       -0.1145152178
 N          1.1136565851        0.1102264344        1.1530957961
 O          1.5390033411       -0.5865377037       -0.9348344216
 H         -1.5463821249       -0.6141684675        1.4917391091
 H         -1.2981497709       -1.9219933408        0.3316193350
 H         -2.6474476083       -0.8028798680        0.1295348973
 H         -0.8646990727       -0.2557858571       -1.4734167369
 H         -1.0514221424        1.8101879457        0.7809137872
 H         -2.1485589431        1.6456290564       -0.5876714604
 H         -0.4728347518        2.1289052895       -0.8566139514
 H          0.4626808602        0.4420607711        1.8401839447
 H          2.0770797939       -0.0094155235        1.4165447173
  15
  -20.148460860000000        2.8533623111582661E-002 !mtd5
 C         -1.6078359887       -0.8849427037        0.4399267193
 C         -0.7343623062        0.0251500637       -0.4239846916
 C         -1.1227431327        1.4947100117       -0.2587361464
 C          0.7447359276       -0.1853021750       -0.1145465035
 N          1.1138314719        0.1113597350        1.1528100597
 O          1.5387447969       -0.5879522431       -0.9344593421
 H         -1.2986832714       -1.9219410654        0.3318461584
 H         -2.6475495491       -0.8021249360        0.1306224703
 H         -1.5454551676       -0.6140311604        1.4921559267
 H         -0.8647593867       -0.2565182048       -1.4732553421
 H         -1.0526169630        1.8103580671        0.7804588058
 H         -2.1481048954        1.6457783202       -0.5893236045
 H         -0.4721008041        2.1287696250       -0.8564241766
 H          0.4633663380        0.4452868065        1.8393239755
 H          2.0773547169       -0.0079828601        1.4160734610
  15
  -20.148460849999999        2.8533321171827383E-002 !mtd4
 C         -1.6080699860       -0.8857171032        0.4384952004
 C         -0.7343087012        0.0253675179       -0.4240570260
 C         -1.1227011082        1.4947190780       -0.2571772788
 C          0.7447805769       -0.1850202630       -0.1146072993
 N          1.1130227069        0.1072927973        1.1539928879
 O          1.5396399751       -0.5835701197       -0.9356620832
 H         -2.6475001600       -0.8033292033        0.1281792474
 H         -1.5470031744       -0.6154037717        1.4909453849
 H         -1.2981993055       -1.9224640988        0.3301041852
 H         -0.8644767888       -0.2548237129       -1.4737468739
 H         -1.0521288888        1.8090337250        0.7823897242
 H         -2.1481832264        1.6461348075       -0.5872463269
 H         -0.4721852717        2.1294123938       -0.8543464305
 H          0.4624279461        0.4398626798        1.8410801082
 H          2.0768460014       -0.0107026574        1.4168421972
  15
  -20.148460849999999        2.8533321171827383E-002 !md2
 C         -1.6077936204       -0.8852631977        0.4395396712
 C         -0.7343824811        0.0253404663       -0.4239238666
 C         -1.1228257129        1.4948150315       -0.2583093514
 C          0.7446862241       -0.1852560619       -0.1145772270
 N          1.1137550419        0.1103663833        1.1530155733
 O          1.5388880705       -0.5869004288       -0.9347597224
 H         -1.5461159103       -0.6142537283        1.4917664139
 H         -1.2980691944       -1.9221185746        0.3316740938
 H         -2.6473850464       -0.8029926631        0.1297243238
 H         -0.8647972032       -0.2557622579       -1.4733277770
 H         -2.1488954100        1.6454841801       -0.5869399555
 H         -0.4734700701        2.1289998164       -0.8573055989
 H         -1.0507225114        1.8104542858        0.7807419696
 H          0.4636101138        0.4434151272        1.8402133554
 H          2.0773959947       -0.0087743102        1.4160107061
  15
  -20.148460780000001        2.8531207683215695E-002 !mtd1
 C         -1.6072146314       -0.8838052302        0.4423848934
 C         -0.7344849375        0.0249601349       -0.4238007472
 C         -1.1229581614        1.4947249133       -0.2612846159
 C          0.7445066229       -0.1859607560       -0.1144210396
 N          1.1155000590        0.1184690356        1.1505242923
 O          1.5369357060       -0.5955927623       -0.9323032042
 H         -1.2975092855       -1.9208798448        0.3365423999
 H         -2.6470596921       -0.8022731490        0.1332551166
 H         -1.5445491969       -0.6104347626        1.4939629807
 H         -0.8655244891       -0.2586589773       -1.4724560347
 H         -2.1483701123        1.6448676195       -0.5922008926
 H         -0.4724126978        2.1278636365       -0.8601055126
 H         -1.0530310148        1.8122108095        0.7773633154
 H          0.4660027581        0.4561733226        1.8360683496
 H          2.0787858459       -0.0024069554        1.4139754067
  15
  -20.148460770000000        2.8530905769020218E-002 !mtd11
 C         -1.6076855002       -0.8857068503        0.4388307808
 C         -0.7343371294        0.0255350741       -0.4239964945
 C         -1.1230258753        1.4948313973       -0.2573431221
 C          0.7447492434       -0.1849183478       -0.1147029153
 N          1.1131743600        0.1076044609        1.1538359535
 O          1.5394316071       -0.5843533794       -0.9355759966
 H         -1.5476049391       -0.6142255649        1.4910664651
 H         -1.2966325634       -1.9222829538        0.3316751994
 H         -2.6469921486       -0.8047228045        0.1276646994
 H         -0.8645901925       -0.2548519796       -1.4736101133
 H         -0.4730800393        2.1294767973       -0.8551868628
 H         -1.0519605626        1.8095713883        0.7821163267
 H         -2.1488057277        1.6458335771       -0.5868911333
 H          0.4633137437        0.4426357455        1.8404494578
 H          2.0771501946       -0.0102836722        1.4161269072
  15
  -20.148460750000002        2.8530301950320969E-002 !mtd1
 C         -1.6083634035       -0.8858215605        0.4379923662
 C         -0.7342626158        0.0254031878       -0.4240891679
 C         -1.1224569815        1.4947370611       -0.2568244000
 C          0.7448486624       -0.1850256366       -0.1145433586
 N          1.1127496807        0.1063442568        1.1543681756
 O          1.5399968356       -0.5820658521       -0.9360492341
 H         -1.2976808578       -1.9224397168        0.3305167546
 H         -2.6474918337       -0.8043219226        0.1263839630
 H         -1.5488679044       -0.6148631241        1.4903916126
 H         -0.8642723119       -0.2544438034       -1.4738918783
 H         -0.4739662576        2.1291480696       -0.8564830448
 H         -1.0484393599        1.8096959638        0.7823024999
 H         -2.1490519266        1.6457170626       -0.5836851041
 H          0.4607198146        0.4331065917        1.8428047695
 H          2.0760040189       -0.0139064463        1.4181999903
  15
  -20.148460650000001        2.8527283048182858E-002 !mtd6
 C         -1.6075932507       -0.8857799999        0.4388922635
 C         -0.7343239849        0.0255324484       -0.4239553868
 C         -1.1231775561        1.4948122045       -0.2573178913
 C          0.7448269836       -0.1848073091       -0.1147539512
 N          1.1132450150        0.1075497886        1.1537609354
 O          1.5392994555       -0.5845729696       -0.9355372614
 H         -2.6471247071       -0.8039689160        0.1287464160
 H         -1.5463740330       -0.6152022910        1.4912492687
 H         -1.2972513477       -1.9224009038        0.3306999486
 H         -0.8645906829       -0.2548110934       -1.4735866111
 H         -2.1491101564        1.6456198295       -0.5863491338
 H         -0.4736327469        2.1296405318       -0.8554536445
 H         -1.0517606449        1.8096669002        0.7820490597
 H          0.4639005910        0.4451176050        1.8395990205
 H          2.0774825529       -0.0084570908        1.4159692196
  15
  -20.148460610000001        2.8526075576794648E-002 !mtd2
 C         -1.6088193950       -0.8874183217        0.4349596176
 C         -0.7341520389        0.0258584103       -0.4243307652
 C         -1.1222006643        1.4948779951       -0.2535766419
 C          0.7449721621       -0.1842543096       -0.1147180276
 N          1.1109155737        0.0979828355        1.1568324280
 O          1.5418827275       -0.5730393899       -0.9384732548
 H         -2.6476092568       -0.8054728401        0.1224345808
 H         -1.5506946412       -0.6187961487        1.4880122692
 H         -1.2978554154       -1.9237344629        0.3255953138
 H         -0.8635669064       -0.2511763218       -1.4749669829
 H         -0.4730286141        2.1307152845       -0.8510184968
 H         -1.0488278910        1.8069453609        0.7864697669
 H         -2.1484869952        1.6469889273       -0.5808916125
 H          0.4578560048        0.4193156240        1.8469634091
 H          2.0743089194       -0.0214485424        1.4205730524
  15
  -20.146974279999998        5.9179604014613450E-003 !gc
 C         -1.4185057390       -0.3830157223       -1.2121418713
 C         -0.6781814488        0.4530604084       -0.1677794804
 C         -1.4452930011        0.4680793921        1.1531599638
 C          0.7545596383       -0.0170973084        0.0904044788
 N          1.4182102911       -0.4945238452       -0.9889794971
 O          1.2894294038        0.0568211661        1.1736601442
 H         -2.4708248467       -0.1067201603       -1.2136927710
 H         -1.3470477410       -1.4424877824       -0.9751962943
 H         -1.0374570050       -0.2187159315       -2.2182525510
 H         -0.5931024871        1.4850193737       -0.5322920857
 H         -0.8635129204        0.9833214142        1.9121272932
 H         -1.6216753664       -0.5494812697        1.4941794566
 H         -2.4023609603        0.9702414851        1.0350832300
 H          1.0055170812       -0.5651608212       -1.8997283384
 H          2.3706124216       -0.7946411265       -0.8641945553
  15
  -20.146971720000000        5.9019504673141852E-003 !gc
 C         -1.4185875446       -0.3797104151       -1.2141055835
 C         -0.6783066786        0.4530147247       -0.1670899624
 C         -1.4454946082        0.4641565118        1.1539492241
 C          0.7548636801       -0.0164120521        0.0903862387
 N          1.4153013169       -0.5035909831       -0.9865342653
 O          1.2926661326        0.0663111817        1.1715799937
 H         -1.0386308309       -0.2109810649       -2.2199253321
 H         -2.4710999185       -0.1042904860       -1.2137403214
 H         -1.3463228119       -1.4400785314       -0.9812705246
 H         -0.5936137974        1.4861521241       -0.5283119159
 H         -0.8642449668        0.9783723764        1.9140179158
 H         -1.6208257625       -0.5543616066        1.4926948917
 H         -2.4031356162        0.9655153563        1.0371638237
 H          1.0003478428       -0.5809065050       -1.8957016788
 H          2.3679664948       -0.8029478727       -0.8618581011
  15
  -20.146968619999999        5.8826214062364171E-003 !mtd3
 C         -1.6178160694       -1.0077615333        0.0199793621
 C         -0.7102710104        0.1437333052       -0.4099284820
 C         -1.2046299383        1.4675523112        0.1734242954
 C          0.7348256445       -0.1937326049       -0.0378342916
 N          1.5705063937        0.8632923733        0.0942960262
 O          1.1325241690       -1.3287531489        0.0991854560
 H         -2.6157401336       -0.8848959699       -0.3937972094
 H         -1.6888114209       -1.0424942175        1.1047418743
 H         -1.2034035939       -1.9515279725       -0.3229460703
 H         -0.7282327098        0.2086719318       -1.5055932645
 H         -0.7411139253        2.3278095371       -0.3059079033
 H         -1.0122553875        1.5110019825        1.2434400072
 H         -2.2785678492        1.5495539225        0.0196267302
 H          1.2734252672        1.8145464789       -0.0134491361
 H          2.5338943087        0.6794291591        0.3201528632
