  22
        -21.00377315
 C         -2.3405885021       -0.2635478545       -1.2364995071
 C         -2.0020031287       -0.4969981532        0.2305431853
 C         -2.0392095681        0.7993352255        1.0301956959
 H         -2.3117759122       -1.1988621338       -1.7910792721
 H         -1.6282470493        0.4244876684       -1.6868992626
 H         -3.3367593333        0.1628659229       -1.3347667026
 H         -1.0069756900       -0.9395602851        0.3059516381
 H         -2.7139922079       -1.2061559606        0.6589057461
 H         -1.7905617506        0.6157010635        2.0732012200
 H         -3.0304179005        1.2459258163        0.9872556900
 H         -1.3262801074        1.5162931992        0.6279479660
 C          2.0457422866       -0.6848458947        1.1018953306
 C          2.6994766993        0.1002509842       -0.0285562338
 C          1.6836571113        0.5187653742       -1.0840851767
 H          1.2762596635       -0.0865580412        1.5853073722
 H          2.7824017839       -0.9672213109        1.8506932918
 H          1.5842245240       -1.5922934210        0.7173454970
 H          3.4747282797       -0.5125510422       -0.4942029381
 H          3.1829387463        0.9899878746        0.3813371222
 H          0.9175877538        1.1518690404       -0.6418624263
 H          1.1989524997       -0.3550425124       -1.5144998991
 H          2.1669318766        1.0733497261       -1.8854326964
