  22
        -21.00382961
 C         -1.9937972602       -1.3028636137        0.0230652131
 C         -1.9793595562        0.1162991601       -0.5311361691
 C         -2.1623027206        1.1533001592        0.5698138548
 H         -1.8607198317       -2.0296517509       -0.7753662783
 H         -2.9402875909       -1.5080396549        0.5189713420
 H         -1.1924043067       -1.4373390486        0.7463404318
 H         -2.7778066643        0.2261753597       -1.2686921018
 H         -1.0309741677        0.2959059813       -1.0419026452
 H         -2.1445669614        2.1595732240        0.1577694031
 H         -1.3663778195        1.0713736419        1.3069416045
 H         -3.1132488740        1.0062558412        1.0774780609
 C          1.9834204417       -1.2666559084       -0.1755195129
 C          1.9956717083        0.0761579961        0.5442166527
 C          2.1574286624        1.2365709246       -0.4296008682
 H          1.1617199716       -1.3102414999       -0.8869657319
 H          1.8660762260       -2.0828138390        0.5341084925
 H          2.9143264613       -1.4157168353       -0.7186073177
 H          2.8149605227        0.0929922295        1.2667183091
 H          1.0631470979        0.1981568423        1.0993692044
 H          1.3375158892        1.2518130395       -1.1446820552
 H          3.0899526335        1.1428116004       -0.9823466066
 H          2.1660403466        2.1861052100        0.1008656160
