  22
        -21.00384599
 C         -1.9920859883       -0.6806184058       -1.0640143650
 C         -1.9607570978       -0.3079006648        0.4129481177
 C         -2.3071040504        1.1601620489        0.6284552037
 H         -1.7420472548       -1.7304334118       -1.2013051202
 H         -1.2772710133       -0.0799201845       -1.6226233928
 H         -2.9825107810       -0.5070069913       -1.4797197238
 H         -0.9658378097       -0.5093998619        0.8153481938
 H         -2.6709605468       -0.9318610040        0.9603982893
 H         -2.2673698558        1.4147142397        1.6853776299
 H         -3.3091679777        1.3728064180        0.2617589124
 H         -1.6071408508        1.7992981304        0.0937691503
 C          2.3733668886       -0.8371295297        1.0105606170
 C          2.0708056665       -0.4415727738       -0.4294661899
 C          1.8232427413        1.0561620163       -0.5597398960
 H          2.5385820784       -1.9093936565        1.0888085400
 H          1.5439417961       -0.5692127226        1.6622017607
 H          3.2646663959       -0.3250853715        1.3672862020
 H          1.1905508646       -0.9862539452       -0.7775118454
 H          2.9103569607       -0.7273059920       -1.0673464993
 H          2.6992648251        1.6164282349       -0.2394308809
 H          0.9811672946        1.3570019153        0.0597020331
 H          1.6047788817        1.3221601455       -1.5917395696
