  22
        -21.00378573
 C         -2.4892348867       -1.3121040144       -0.0932227539
 C         -2.1311216902        0.0989533751       -0.5430963704
 C         -1.8100445988        1.0017149164        0.6413848586
 H         -1.6654738239       -1.7556876050        0.4624584785
 H         -2.7071597520       -1.9461430599       -0.9498430827
 H         -3.3648249116       -1.2943024241        0.5522612322
 H         -2.9651610557        0.5223313415       -1.1074172959
 H         -1.2686098651        0.0577841808       -1.2126366384
 H         -1.5538855730        2.0035992445        0.3041452358
 H         -0.9693131151        0.6032230271        1.2044683803
 H         -2.6666654105        1.0719970365        1.3084611112
 C          1.7746878650       -1.0843792119        0.4161590884
 C          2.6884614166       -0.0292884121       -0.1947695069
 C          2.0048243463        1.3299754852       -0.2762507714
 H          2.2785693961       -2.0470360231        0.4678682103
 H          0.8744716492       -1.1998463099       -0.1832550115
 H          1.4820652043       -0.7966371669        1.4241106732
 H          2.9861283578       -0.3456950094       -1.1971120736
 H          3.5957186065        0.0570475795        0.4076335771
 H          1.7178286995        1.6723897738        0.7157574690
 H          1.1078127529        1.2692926201       -0.8884219400
 H          2.6707533073        2.0696222178       -0.7150730099
