  22
        -21.00398928
 C         -2.0066601488       -1.2850013812        0.1527826487
 C         -2.0711224459        0.0567290924       -0.5662925030
 C         -2.0128578861        1.2233134958        0.4119288338
 H         -2.0417285626       -2.1060894419       -0.5600076629
 H         -2.8452607611       -1.3894912138        0.8381434072
 H         -1.0852702091       -1.3666478811        0.7251449704
 H         -2.9961612524        0.1141580166       -1.1445756403
 H         -1.2385662736        0.1312278234       -1.2698637967
 H         -2.0600408733        2.1725820821       -0.1172059252
 H         -1.0880854087        1.1952254940        0.9838251151
 H         -2.8471928621        1.1769443463        1.1086734932
 C          2.0287544461       -1.2355454856       -0.3727607973
 C          2.0704759209       -0.0377037662        0.5679905961
 C          1.9913620012        1.2794993190       -0.1935395909
 H          1.1067190422       -1.2349773397       -0.9497805773
 H          2.0827351227       -2.1667693032        0.1868279164
 H          2.8662104764       -1.2030406261       -1.0664681290
 H          2.9947219244       -0.0653885096        1.1496708322
 H          1.2372338103       -0.1004430926        1.2718340327
 H          1.0676811964        1.3343391626       -0.7651860611
 H          2.8268231713        1.3695734426       -0.8845773740
 H          2.0207548108        2.1234091093        0.4922442291
