%chk=11.chk
%nprocshared=4
%mem=8000mb
#T wB97XD/def2svpp opt=tight freq int(grid=ultrafine) scf=(verytight,qc) Volume=tight

Dimer

0 1
 C         -2.6603732174        0.8473993045       -0.1143257093
 C         -1.4889557712        0.3353939588       -0.9457601429
 C         -0.1636836403        0.1323120753       -0.1887336459
 C         -0.3146979850       -0.7620324297        1.0547815157
 C         -0.7836876267       -2.1887804450        0.7876116340
 C          0.8324585271       -0.4782687151       -1.2017795349
 O          2.1083545383       -0.7682528947       -0.6738859749
 C          0.3911596558        1.5002311344        0.2716368324
 O          1.6175172501        1.4135114030        0.9454023266
 H         -3.5213599708        0.9986015788       -0.7618762039
 H         -2.4245547868        1.7963710126        0.3585102020
 H         -2.9420486107        0.1345198826        0.6554401281
 H         -1.3044401741        1.0413470181       -1.7596310991
 H         -1.7764761963       -0.6131523447       -1.4048400212
 H         -1.0190961709       -0.2792227541        1.7335128213
 H          0.6450584271       -0.7838777803        1.5784218306
 H         -1.7608975432       -2.1966998745        0.3118522070
 H         -0.8644902877       -2.7269473999        1.7298825002
 H         -0.0908074254       -2.7348985369        0.1509592019
 H          1.0125550935        0.2402631812       -2.0064462286
 H          0.3960680132       -1.3794579375       -1.6523258151
 H          2.0093893205       -1.4448650045        0.0057103841
 H         -0.2975047934        1.9668133015        0.9799557283
 H          0.4816102874        2.1593331332       -0.6065186283
 H          2.2176984406        0.8929545952        0.3881888581


