%nprocshared=4
%mem=8000mb
%chk=4.chk
%mem=8000mb
#T wB97XD/def2svpp opt=tight freq int(grid=ultrafine) scf=(verytight,qc)

comment

1 2
Cl        0.291389   -1.022980   -1.422666
C       -0.000072    0.000018    0.000007
Cl       -0.076052    1.702712   -0.500518
Cl       -1.538472   -0.463715    0.757677
Cl        1.323160   -0.216023    1.165504


