  25
        -31.27433124
 C         -2.5329706952        1.2373569478       -0.2027621935
 C         -1.2931851309        0.7687397220       -0.9587510294
 C         -0.2564981323       -0.0340356703       -0.1422788994
 C         -0.9473595660       -1.2201448310        0.5541536773
 C         -0.0093593385       -2.2199544526        1.2245996304
 C          0.8088438359       -0.5304844849       -1.1571273593
 O          2.0497168072       -0.8676471513       -0.5995545289
 C          0.4301121095        0.8594474848        0.9098898886
 O          1.3161266277        1.8089099376        0.3555719280
 H         -3.1373107084        0.3957043412        0.1222900450
 H         -3.1430031787        1.8544388043       -0.8591810002
 H         -2.2717201137        1.8325980123        0.6686838530
 H         -0.7987536315        1.6444218341       -1.3911489213
 H         -1.6141191365        0.1438975599       -1.7961115697
 H         -1.5378163571       -1.7470401009       -0.1995994545
 H         -1.6370506443       -0.8333320062        1.3072248908
 H          0.7748978897       -2.5374946717        0.5451976544
 H         -0.5757518806       -3.0952971409        1.5355368970
 H          0.4569235546       -1.7934620150        2.1088506004
 H          0.9488950446        0.2418856678       -1.9284545261
 H          0.4428286850       -1.4330861642       -1.6528010809
 H          2.4192174914       -0.0639546359       -0.2118544462
 H          1.0491915198        0.2445299119        1.5650657120
 H         -0.3270254004        1.3542408968        1.5308334163
 H          0.8102378457        2.4245456148       -0.1853042830
