  25
        -31.27494212
 C         -2.7007281010        0.6016680055       -0.2685867852
 C         -1.4345206603        0.4478557841       -1.1038114032
 C         -0.1493017912        0.0373572179       -0.3592382200
 C         -0.2932801975       -1.3017451881        0.3954807345
 C         -0.8262013778       -1.2543791205        1.8270402702
 C          0.9302024902       -0.1657635038       -1.4560535563
 O          2.1721307997       -0.5927585581       -0.9698665764
 C          0.3015468486        1.1882169863        0.5612388692
 O          1.5601164726        0.9858021501        1.1702137292
 H         -3.0212040093       -0.3533355160        0.1373635765
 H         -3.5016730302        0.9781949575       -0.9016141545
 H         -2.5600436023        1.3067061560        0.5461207816
 H         -1.2378970340        1.3952090796       -1.6126870080
 H         -1.6263752674       -0.2989045741       -1.8782865876
 H          0.6912851555       -1.7785126587        0.4118621237
 H         -0.9454562819       -1.9459786122       -0.1981481080
 H         -0.1467563200       -0.7446142672        2.5076369070
 H         -0.9447921539       -2.2734019087        2.1911539392
 H         -1.7919532652       -0.7626813074        1.8861023268
 H          1.0412641910        0.7722548774       -2.0209615748
 H          0.5998214784       -0.9439003552       -2.1501651385
 H          2.4549091142        0.0576558671       -0.3069962455
 H         -0.4579583542        1.3778206738        1.3287988925
 H          0.4173897572        2.1000218439       -0.0314618950
 H          1.5042601108        0.1986238617        1.7245494377
