  25
        -31.27503290
 C         -1.7577076304        0.9650094334       -1.6261459129
 C         -1.6518969685        0.2492680443       -0.2812164488
 C         -0.2280059546       -0.0284642209        0.2356576048
 C         -0.2977736640       -0.9414253098        1.4768809661
 C         -0.6995247585       -2.3903742012        1.2223079143
 C          0.6647050046       -0.6936377051       -0.8380352027
 O          1.3640788680        0.2150061309       -1.6612002233
 C          0.4289007924        1.2977851632        0.6911436104
 O          1.7835540291        1.1583778920        1.0241471190
 H         -1.3683140012        0.3497332924       -2.4352068567
 H         -1.2381382067        1.9206515447       -1.6170821964
 H         -2.8049691111        1.1632604428       -1.8455663300
 H         -2.1801050319       -0.7017813762       -0.3675805451
 H         -2.1711192178        0.8449374900        0.4735150762
 H         -1.0080617573       -0.5005201450        2.1804812500
 H          0.6859004366       -0.9244060918        1.9512324746
 H         -1.6852348991       -2.4583699236        0.7687528888
 H         -0.7314913972       -2.9253410190        2.1687348113
 H          0.0123365124       -2.8948239472        0.5749237335
 H          0.0616280307       -1.3789135510       -1.4474377317
 H          1.4481960276       -1.2765589134       -0.3476072050
 H          0.7266439915        0.7306131646       -2.1662181563
 H         -0.0702182319        1.6534036849        1.5962528159
 H          0.3097005393        2.0667256683       -0.0841783958
 H          2.2489390506        0.9041701576        0.2156673151
