  25
        -31.27443397
 C         -2.6483082649        0.8119690851       -0.0709424668
 C         -1.4869470953        0.3320265605       -0.9347797249
 C         -0.1481573419        0.1239812362       -0.2008404506
 C         -0.2723607059       -0.7718050386        1.0429574068
 C         -0.8530418147       -2.1600008371        0.7993335168
 C          0.8229108879       -0.4978622879       -1.2250414151
 O          2.0912339230       -0.7376567391       -0.6424487996
 C          0.4125652345        1.4953978232        0.2382164151
 O          1.5879725706        1.4221032824        0.9963489613
 H         -2.4225305283        1.7623541524        0.4038315837
 H         -2.8921659512        0.0882101237        0.7009458299
 H         -3.5287056391        0.9488927809       -0.6955040000
 H         -1.3234685930        1.0597718257       -1.7344056833
 H         -1.7727393935       -0.6084837333       -1.4109257956
 H         -0.8842549685       -0.2477704602        1.7784204503
 H          0.7248823015       -0.8797386653        1.4718579826
 H         -0.2174496438       -2.7427239033        0.1377531063
 H         -1.8491494662       -2.1087900189        0.3672817437
 H         -0.9229674103       -2.6918017316        1.7458299979
 H          0.9278875825        0.1917617210       -2.0762917372
 H          0.4000652994       -1.4363776962       -1.6059249689
 H          2.6611971620       -1.1551545750       -1.2949299753
 H         -0.3130573964        2.0097848138        0.8724965769
 H          0.5771301324        2.1120516461       -0.6618927012
 H          2.1647039902        0.7732361717        0.5676173703
