  25
        -31.27476640
 C         -1.6927414683        1.0766328558       -1.5605732326
 C         -1.6222274848        0.1446891177       -0.3537152612
 C         -0.2128043315       -0.0686731580        0.2277272027
 C         -0.2947354315       -0.9973183809        1.4580026368
 C         -0.7828119399       -2.4165335242        1.1847041725
 C          0.7402693856       -0.6903222985       -0.8250339271
 O          1.3173543620        0.2317658453       -1.7111257637
 C          0.3624983252        1.2887261001        0.6908010561
 O          1.7452012813        1.2545254587        0.9733524113
 H         -0.9237385666        0.8238993803       -2.2841940444
 H         -1.5684195811        2.1168606817       -1.2709346464
 H         -2.6650037628        0.9796512301       -2.0388990613
 H         -2.0091578979       -0.8291206867       -0.6567765707
 H         -2.2728150005        0.5277821219        0.4373682342
 H         -0.9594872067       -0.5358741333        2.1936176465
 H          0.6986521477       -1.0682812447        1.9125217280
 H         -1.8068528900       -2.4195867240        0.8233100206
 H         -0.7522416588       -2.9932331774        2.1069175680
 H         -0.1537171253       -2.9142230547        0.4521585274
 H          0.1876968166       -1.3949639047       -1.4504477280
 H          1.5335877541       -1.2456513163       -0.3024093903
 H          1.8601734514        0.8353229599       -1.1872756008
 H         -0.2019749712        1.6432163652        1.5641097429
 H          0.2597067089        2.0285306964       -0.1036384959
 H          1.8980194698        0.6676304840        1.7213675533
