  25
        -31.27481579
 C         -2.5078437186       -0.1306838251       -1.2203034519
 C         -1.5602104446        0.7615783388       -0.4249657093
 C         -0.1673764340        0.1741811896       -0.1307663697
 C         -0.2242710023       -1.1715706902        0.6123316659
 C         -0.9323479875       -1.1352309234        1.9608767345
 C          0.5788215623       -0.0407199250       -1.4623677731
 O          1.9219350055       -0.4241003257       -1.2234655801
 C          0.6019534120        1.2265802613        0.7032363379
 O          1.7997430800        0.7664539985        1.2614080183
 H         -2.6971921933       -1.0650498398       -0.6999678538
 H         -2.1116074183       -0.3551748346       -2.2070256219
 H         -3.4594804267        0.3803331283       -1.3505214136
 H         -2.0332998599        1.0090275589        0.5262620127
 H         -1.4238781828        1.7010362652       -0.9676479467
 H          0.8033918622       -1.5028113887        0.7700732369
 H         -0.7088327673       -1.9070519647       -0.0331351575
 H         -0.9151828561       -2.1284254750        2.4047486479
 H         -1.9704929119       -0.8289197231        1.8601693119
 H         -0.4272067261       -0.4543663900        2.6393264629
 H          0.5560594598        0.8926545405       -2.0441046577
 H          0.0729660250       -0.8223289808       -2.0433059192
 H          2.3559425197       -0.5802050171       -2.0673667574
 H         -0.0145340063        1.5560987473        1.5432762111
 H          0.7898466297        2.1045248208        0.0625789788
 H          2.2907565425        0.3302627358        0.5510080486
