  25
        -31.27662032
 C         -2.1394932945        1.1644718223       -1.3371275918
 C         -1.7256260998        0.0413657797       -0.3898977745
 C         -0.2216730247       -0.0661332779       -0.0804254093
 C          0.0744356255       -1.3865917673        0.6640874550
 C         -0.8179423051       -1.6800046111        1.8657214739
 C          0.5759549601       -0.0645351185       -1.4046202068
 O          1.9654334547       -0.2629879028       -1.2492307208
 C          0.2408795222        1.1313134933        0.7780832041
 O          1.5819000317        1.0457292616        1.1815511814
 H         -1.7474659861        1.0087428994       -2.3383053346
 H         -1.8018439873        2.1315921228       -0.9757635382
 H         -3.2250149801        1.1926541236       -1.4044813388
 H         -2.0540749359       -0.9088961379       -0.8189336941
 H         -2.2559982544        0.1818975677        0.5528875044
 H          1.1052675012       -1.3460266562        1.0253211349
 H         -0.0129184032       -2.2161297724       -0.0450211689
 H         -0.4638011378       -2.5803736975        2.3634777529
 H         -1.8501370727       -1.8444794001        1.5689278863
 H         -0.7825970707       -0.8647907741        2.5826151936
 H          0.4910462364        0.9105464285       -1.8886432420
 H          0.1588090407       -0.8249445363       -2.0797655914
 H          2.1155697540       -1.1506690375       -0.9057077085
 H         -0.3480237827        1.1858542364        1.6970640842
 H          0.0771236157        2.0614595245        0.2142629006
 H          2.1115871206        0.8881819301        0.3845229272
