  25
        -31.27557606
 C         -2.4814145656        0.9151337644       -0.4383401085
 C         -1.2736464677        0.1613328463       -0.9846407090
 C         -0.1097940226       -0.0305788603        0.0047190908
 C         -0.5200984027       -0.7959032853        1.2741610694
 C         -1.0119328320       -2.2220652713        1.0538436430
 C          1.0238549684       -0.8054805962       -0.7102819711
 O          1.8227410857       -0.0010488251       -1.5515322034
 C          0.4415048314        1.3507427483        0.4407748379
 O          1.6998007700        1.2816437627        1.0550986574
 H         -2.2037432235        1.9095171590       -0.1003006521
 H         -2.9361245429        0.3798143103        0.3900294596
 H         -3.2293393515        1.0194582879       -1.2217992078
 H         -0.8993750251        0.7059111706       -1.8577360199
 H         -1.6018393936       -0.8204460426       -1.3334975102
 H         -1.3004348214       -0.2290595957        1.7843693578
 H          0.3476000730       -0.8132319144        1.9374557313
 H         -1.2739855327       -2.6662640866        2.0115769004
 H         -0.2452513398       -2.8405584591        0.5951555132
 H         -1.8970867593       -2.2409191598        0.4231787048
 H          0.5985721480       -1.6408658154       -1.2808679006
 H          1.7143668678       -1.2155542979        0.0306517843
 H          1.2768745553        0.3340977804       -2.2704557231
 H         -0.2242278528        1.7935094545        1.1845241098
 H          0.4797496639        2.0224001816       -0.4295193841
 H          2.3288695119        0.9772264563        0.3880196856
