  25
        -31.27456483
 C         -2.2833556757       -0.2817586414       -1.3168612698
 C         -1.2980593916        0.6484859381       -0.6170693638
 C         -0.0627409149       -0.0280711806        0.0042737527
 C         -0.4101754594       -1.2539736326        0.8677498113
 C         -1.3893593652       -1.0025828441        2.0109993677
 C          0.8929557799       -0.5028758075       -1.1186214627
 O          1.4665421227        0.5458482280       -1.8520968240
 C          0.6704768493        1.0488669501        0.8368502387
 O          1.9932814131        0.7053225548        1.1822166822
 H         -3.0795325341        0.3104246487       -1.7627168278
 H         -2.7360673520       -0.9861230345       -0.6244714187
 H         -1.7983574865       -0.8406638798       -2.1123821588
 H         -1.8248499037        1.2046716147        0.1618263338
 H         -0.9308729287        1.3725057180       -1.3479703639
 H          0.5160781583       -1.6616756898        1.2853583646
 H         -0.8203998334       -2.0247130341        0.2128645586
 H         -0.9819953950       -0.3109406694        2.7443399496
 H         -1.6000137579       -1.9408360859        2.5201752257
 H         -2.3281758483       -0.5979441228        1.6451599867
 H          0.3415446541       -1.1076606077       -1.8407029718
 H          1.6791295779       -1.1342346404       -0.6808697321
 H          2.0730800689        1.0130534663       -1.2653447477
 H          0.0865374254        1.2876378102        1.7341527940
 H          0.7539457092        1.9662434890        0.2481632788
 H          1.9692075999       -0.0619785430        1.7637223407
