  25
        -31.27415439
 C         -1.4250005696        1.4515026135       -1.1551043671
 C         -1.3899658309        0.0476973825       -0.5546291409
 C         -0.0563304039       -0.4161785020        0.0636139036
 C         -0.2686343903       -1.8117455417        0.6952277132
 C         -1.1634310177       -1.8695693163        1.9297881472
 C          1.0269588031       -0.6161479171       -1.0264250264
 O          1.4262840912        0.5347693252       -1.7194392211
 C          0.4607758865        0.5432677679        1.1579861256
 O          1.1083411346        1.7100014161        0.6979289865
 H         -1.4155122635        2.2186603694       -0.3812744773
 H         -2.3496468147        1.5761251537       -1.7157863782
 H         -0.5932945802        1.6015738811       -1.8375166574
 H         -1.6465986551       -0.6658650871       -1.3411282815
 H         -2.1678531607       -0.0142785459        0.2093965759
 H          0.7086366665       -2.2180663618        0.9672477036
 H         -0.6888872330       -2.4668514340       -0.0713108244
 H         -2.1613689117       -1.4936777372        1.7222134459
 H         -0.7409542352       -1.2996306470        2.7524864157
 H         -1.2588794026       -2.9040571841        2.2522126824
 H          0.6440476418       -1.3032893398       -1.7864448536
 H          1.9033026577       -1.0865544251       -0.5540116056
 H          1.7779231770        1.1490527649       -1.0560097266
 H          1.2191885044        0.0254248605        1.7522733117
 H         -0.3700177532        0.8167748699        1.8211113008
 H          0.4587151755        2.2631706862        0.2488288520
