  26
        -37.26028633
 C          3.3436236194       -0.7882883066       -0.8298659527
 C          1.9487063489       -0.3432045643       -0.4019888428
 O          1.1862965167       -1.4447386383        0.0688961780
 C          2.0316086564        0.7693665609        0.6603822034
 O          0.8153877111        1.4330403593        0.8743908699
 H          3.9243410285       -1.1023010023        0.0367574663
 H          3.8658392453        0.0261271758       -1.3223019330
 H          3.2670322841       -1.6238448079       -1.5213459987
 H          1.3892113491        0.0284826827       -1.2669249443
 H          1.6695599473       -1.8707908631        0.7873115009
 H          2.7346922475        1.5332449576        0.3202160462
 H          2.4104033727        0.3418243179        1.6015381038
 H          0.1538464769        0.8058147291        1.2369477199
 C         -2.5093443791       -1.3379090167       -0.6389826333
 C         -2.3228838849       -0.2344960904        0.3943164773
 O         -1.1723084205       -0.4753086952        1.1892193767
 C         -2.2486007985        1.1495496385       -0.2911468247
 O         -1.1587702543        1.2766390058       -1.1675774839
 H         -2.4818768581       -2.3137953906       -0.1589887505
 H         -1.7109290200       -1.2781334922       -1.3766877815
 H         -3.4622446521       -1.2214777573       -1.1470768439
 H         -3.1686238537       -0.2152773937        1.0927983182
 H         -0.5227948699       -0.9492333343        0.6351186019
 H         -2.2183344027        1.9287779789        0.4807268848
 H         -3.1527501269        1.2854800500       -0.8903537890
 H         -0.3656680673        1.4450023573       -0.6296485596
