  26
        -37.25828525
 C          3.3367928697       -1.1033318340       -0.4311867413
 C          2.2796302641       -0.0078353837       -0.3833556285
 O          1.0673929773       -0.5374110888       -0.8905336811
 C          2.0995866224        0.5085234811        1.0619501254
 O          1.0001364298        1.3744159622        1.1972203839
 H          3.0161128309       -1.9495755417        0.1712502848
 H          4.2825605694       -0.7300941370       -0.0495176257
 H          3.4704747784       -1.4400564825       -1.4555244758
 H          2.5932732090        0.8349402290       -1.0164641747
 H          0.4763976549        0.2147360102       -1.0782442806
 H          2.9879658112        1.0775063199        1.3468120959
 H          1.9965920447       -0.3482791094        1.7404569219
 H          0.2001883948        0.8175332257        1.1928736888
 C         -3.2192434819       -1.4166102130        0.2730220336
 C         -2.2972471490       -0.2013672485        0.3593363311
 O         -1.0574602027       -0.5307939740        0.9426700052
 C         -2.1169910494        0.4278183780       -1.0348677217
 O         -1.0369861840        1.3308935651       -1.1010964264
 H         -3.3541650441       -1.8445055341        1.2626468191
 H         -2.7826871007       -2.1729566266       -0.3760013037
 H         -4.1882442017       -1.1276660618       -0.1237008771
 H         -2.7327879955        0.5416239116        1.0404908528
 H         -0.5069917046       -1.0155235316        0.3005280682
 H         -3.0527741798        0.9194025602       -1.3317811808
 H         -1.8850138663       -0.3516079069       -1.7664237708
 H         -1.0770964540        1.9517084105       -0.3625604966
