  26
        -37.25813098
 C          2.9703204510       -1.2924991346        0.2451025786
 C          2.1208229653       -0.1843772423       -0.3725151520
 O          0.8762398534       -0.6977302120       -0.8121378077
 C          1.9337935679        0.9748648526        0.6242601995
 O          1.4807400809        2.1625831377        0.0361544746
 H          2.5175444319       -1.6357469529        1.1743597837
 H          3.9724271915       -0.9315198625        0.4554493506
 H          3.0360421879       -2.1319588868       -0.4429193157
 H          2.6000904935        0.2033338575       -1.2775380106
 H          0.4044578143       -1.0752936613       -0.0452340041
 H          2.9007045268        1.2166268942        1.0721683190
 H          1.2542602038        0.6426701606        1.4265349890
 H          0.6077950195        2.0177447903       -0.3662681868
 C         -2.8877480966       -1.1205119515       -0.7501797190
 C         -2.2960202087       -0.5648696570        0.5399449604
 O         -1.1722921954       -1.3317109669        0.9701403492
 C         -1.8339355014        0.8929543678        0.3812605067
 O         -1.1463228196        1.1627974522       -0.8087833464
 H         -3.2527237782       -2.1351670987       -0.5984681139
 H         -2.1344955546       -1.1288990312       -1.5347596785
 H         -3.7152526531       -0.4949751755       -1.0710458548
 H         -3.0544197069       -0.5853717687        1.3380187675
 H         -1.4276641681       -2.2605945028        0.9862654974
 H         -1.2189887538        1.1446862105        1.2582643535
 H         -2.7115262327        1.5440347606        0.3800351256
 H         -0.4734523183        0.4643354105       -0.9572388388
