  26
        -37.25808799
 C          3.3618728802        0.4862087658        0.7285397726
 C          2.2694360954       -0.3734870611        0.0934247798
 O          1.1141445741       -0.4268192659        0.8922384083
 C          1.9355939210        0.1467127536       -1.3163400784
 O          0.7683127797       -0.4481978589       -1.8406865198
 H          3.0181643936        1.5140753032        0.8239317817
 H          4.2607145728        0.4685480829        0.1185751394
 H          3.5963946705        0.1054860736        1.7187497706
 H          2.6138357734       -1.4143282064        0.0247580607
 H          0.6591627976        0.4362520636        0.8344730875
 H          2.7909693898       -0.0204316580       -1.9843495871
 H          1.7260393548        1.2186766213       -1.2747268229
 H          0.8668187826       -1.4063186857       -1.7872146492
 C         -2.5073429243       -0.7619866223       -0.9316838317
 C         -2.4843329226       -0.2242565554        0.5037326182
 O         -1.7370166924       -1.0475754580        1.3609698447
 C         -2.0119884379        1.2430649012        0.5464174159
 O         -0.7137572851        1.4450524046        0.0332450435
 H         -2.8878724979       -1.7798973722       -0.9259385072
 H         -1.5078775492       -0.7773463908       -1.3622294973
 H         -3.1549235290       -0.1493456562       -1.5542382979
 H         -3.5032021125       -0.2450012025        0.9092546494
 H         -0.7975938581       -1.0024119173        1.1212154864
 H         -1.9749118765        1.5793314536        1.5850687644
 H         -2.7346592303        1.8642562264       -0.0002829737
 H         -0.6616374904        1.0367748690       -0.8434885901
