  26
        -37.25942058
 C          3.3846934467        0.7105174528       -0.5776385860
 C          2.2122609388        0.2737410956        0.2986443992
 O          1.1494597448        1.2076245577        0.2054404824
 C          1.7510936840       -1.1433770693       -0.0848777218
 O          0.9313625614       -1.7614901340        0.8663575407
 H          3.6482053104        1.7404002991       -0.3499110415
 H          3.1107002457        0.6446966583       -1.6295036491
 H          4.2489460099        0.0780457076       -0.3991764072
 H          2.5034862628        0.2826232301        1.3540402410
 H          0.7814759818        1.1652231207       -0.6954193236
 H          2.6275374078       -1.7882665739       -0.1865091774
 H          1.2491865283       -1.0895808927       -1.0666352105
 H          0.1640936401       -1.1918846491        1.0622809656
 C         -3.3162573981       -0.7177893898        0.7063275045
 C         -2.2259988725        0.2585051337        0.2776997378
 O         -1.1721373235        0.1508313753        1.2039311997
 C         -1.7667471637       -0.0518132028       -1.1579503443
 O         -0.8966164469        0.9302923503       -1.6894390285
 H         -3.5918701708       -0.5145145089        1.7368520449
 H         -2.9396044322       -1.7352370306        0.6459388297
 H         -4.1931932043       -0.6178382271        0.0733805021
 H         -2.6276910515        1.2884762286        0.2968085315
 H         -0.4275575021        0.7329271697        0.9417552871
 H         -2.6462572319       -0.1657468437       -1.8034188472
 H         -1.2033999216       -0.9871737458       -1.1668296762
 H         -1.3609230828        1.7750244800       -1.7115947950
