  26
        -37.25828659
 C          3.3481679453       -1.1335782178       -0.3418532164
 C          2.3094980408       -0.0135280369       -0.3699493088
 O          1.1022964128       -0.4396060777       -0.9597708453
 C          2.0841694255        0.5358973683        1.0511870981
 O          0.9195229944        1.3204468019        1.1677026650
 H          3.5189982118       -1.5001232755       -1.3503678025
 H          2.9932964031       -1.9586857933        0.2722325448
 H          4.2859555085       -0.7678985965        0.0663259352
 H          2.6615595565        0.7968525311       -1.0216824464
 H          0.6075267921       -1.0030757702       -0.3382106739
 H          2.9693005303        1.1078662251        1.3592481772
 H          1.9436738824       -0.2926393195        1.7515106572
 H          0.8788365445        1.9668904070        0.4510114035
 C         -3.2870384757       -1.3178307416        0.3791389114
 C         -2.2780304334       -0.1768251285        0.3835503381
 O         -1.0404978762       -0.6783953431        0.8561674555
 C         -2.1320512158        0.4207241653       -1.0341281316
 O         -1.0699101997        1.3369206943       -1.1325552925
 H         -3.4029132295       -1.7094341665        1.3859369463
 H         -2.9319608099       -2.1190623681       -0.2640834543
 H         -4.2491483675       -0.9675103844        0.0170381079
 H         -2.6232620679        0.6176889834        1.0611386131
 H         -0.4849535751        0.0893839349        1.0851687889
 H         -3.0452179562        0.9668597023       -1.2827389203
 H         -2.0004556534       -0.3947150605       -1.7570595653
 H         -0.2478453171        0.8132920614       -1.1584968765
