  26
        -37.25864151
 C          2.6725742578       -1.3518539623        0.9321493051
 C          2.2343341074       -0.4956232485       -0.2488244894
 O          1.0721616040       -0.9918536651       -0.8698782356
 C          1.9822015325        0.9670207244        0.1828353349
 O          1.1186579542        1.5975393819       -0.7400745013
 H          2.8923244488       -2.3617137545        0.5959825195
 H          1.8752992749       -1.3983623485        1.6718691925
 H          3.5615394557       -0.9300295627        1.3928079892
 H          3.0008233867       -0.5105418388       -1.0327522093
 H          0.3716272358       -1.0658480361       -0.1853695933
 H          2.9212202987        1.5254906768        0.2283626521
 H          1.5176281789        0.9860264618        1.1780665484
 H          0.8373736762        0.8842855706       -1.3438809686
 C         -2.3971338203       -1.6176841119       -0.5948290768
 C         -2.1633447392       -0.4516001862        0.3518428965
 O         -0.9304985213       -0.6363187245        1.0279080378
 C         -2.1295548462        0.9028934349       -0.3976801185
 O         -1.4454280749        1.8674405164        0.3717982940
 H         -2.4185641485       -2.5479187993       -0.0338135462
 H         -1.5968624506       -1.6741426728       -1.3290223038
 H         -3.3454508596       -1.4899373645       -1.1087038759
 H         -2.9640588542       -0.4171038775        1.1061133300
 H         -0.7334303999        0.2301544578        1.4227548508
 H         -3.1532438214        1.2555218015       -0.5516858015
 H         -1.6566625612        0.7720202805       -1.3760386702
 H         -0.5435406375        1.9766118174        0.0155824116
