  26
        -37.25863812
 C          3.4097263982       -0.6602858895       -0.8120843552
 C          2.0025682276       -0.2077309654       -0.4388887186
 O          1.1504013530       -1.3292703905       -0.2207064074
 C          2.0236007511        0.6343558449        0.8483332527
 O          0.8447784418        1.3577551850        1.0666471272
 H          3.3878464067       -1.2693728059       -1.7150738510
 H          3.8379328566       -1.2486183354       -0.0031706719
 H          4.0453743084        0.2006609059       -0.9954850451
 H          1.5836950763        0.4076922547       -1.2509038293
 H          1.3133955375       -1.9751567775       -0.9163922449
 H          2.8224875794        1.3751303371        0.7633558247
 H          2.2412015064       -0.0290525795        1.6945831882
 H          0.1319753076        0.7361135515        1.3262130508
 C         -3.1170383858       -1.3665434380        0.0139012578
 C         -2.2441764610       -0.1408900843        0.2799473080
 O         -1.1825639581       -0.4684362918        1.1588785580
 C         -1.7260271570        0.4485124060       -1.0443552731
 O         -1.1987071774        1.7398932248       -0.9354055136
 H         -3.4141163269       -1.8151609523        0.9584510490
 H         -2.5621063643       -2.1049580255       -0.5629369306
 H         -4.0084433786       -1.0863510585       -0.5390946115
 H         -2.8207670204        0.6252311980        0.8086288427
 H         -0.5720484875       -1.0710109081        0.6999876667
 H         -2.5587179960        0.5254009552       -1.7481651486
 H         -0.9824124939       -0.2479711058       -1.4669371746
 H         -0.4713366601        1.7456704392       -0.2870472401
