  26
        -37.25802259
 C          3.4531489159       -1.0524411178       -0.0311389885
 C          2.0419192990       -0.4703026940       -0.0079974729
 O          1.5866792656       -0.2867065650        1.3221936986
 C          1.9869095531        0.8500569160       -0.7971828656
 O          0.6835530723        1.3183808051       -1.0123312403
 H          3.4918901752       -1.9446736077        0.5886831768
 H          4.1698289430       -0.3277374396        0.3539252732
 H          3.7362746029       -1.3173904892       -1.0452368083
 H          1.3296864779       -1.1784859851       -0.4425446080
 H          2.1733919080        0.3382369986        1.7650673383
 H          2.4251955078        0.6984155970       -1.7863529917
 H          2.5838789504        1.6097112330       -0.2652195396
 H          0.2338555350        1.3842222719       -0.1438548400
 C         -3.4786796150       -0.6953834263       -0.8942668684
 C         -2.2462917602       -0.6463524446        0.0110187190
 O         -1.0663890777       -0.9369626705       -0.6952482871
 C         -2.1679814648        0.7191403545        0.7179415706
 O         -0.8938180916        1.0043748854        1.2501705964
 H         -3.4013480236        0.0605676945       -1.6731201329
 H         -4.3797900637       -0.5148495690       -0.3148943538
 H         -3.5482059679       -1.6720732553       -1.3653254175
 H         -2.3177651654       -1.4401486445        0.7661484994
 H         -0.7866518916       -0.1584616387       -1.2044166024
 H         -2.9221879570        0.7536821892        1.5158360776
 H         -2.3853092571        1.5202872386        0.0027988373
 H         -0.4265507909        0.1774990981        1.4571491533
