  26
        -37.25820681
 C          3.5679336880       -0.8169426110       -0.4576831465
 C          2.3141273928        0.0474388711       -0.4151590196
 O          1.2153315418       -0.7358201199       -0.8389139692
 C          2.0897252375        0.5959691340        1.0123342770
 O          0.8399883071        1.2259659481        1.1657749293
 H          3.7388855646       -1.1648935898       -1.4725502147
 H          3.4366695268       -1.6829656471        0.1859828841
 H          4.4301286069       -0.2475365114       -0.1227011438
 H          2.4326818302        0.9010927442       -1.0992776674
 H          0.4978406670       -0.1176181585       -1.0697744253
 H          2.8507845023        1.3497418691        1.2276081692
 H          2.1909319793       -0.2246348936        1.7336530894
 H          0.1684300120        0.5180770783        1.1963575430
 C         -3.5046534246       -1.0929840302        0.4033549061
 C         -2.3271484985       -0.1202451121        0.4048495661
 O         -1.1516779676       -0.7279849489        0.8974770636
 C         -2.1179967426        0.4657332975       -1.0034962707
 O         -0.8766605567        1.1075383826       -1.1682224157
 H         -3.6560594912       -1.4866576681        1.4047575393
 H         -3.3067524838       -1.9241757654       -0.2706085586
 H         -4.4101328406       -0.5872251769        0.0810142362
 H         -2.5246311175        0.6957297094        1.1113352797
 H         -0.7908349086       -1.3423635095        0.2414689041
 H         -2.9422146346        1.1566044985       -1.2259945497
 H         -2.1299639645       -0.3375376406       -1.7471120296
 H         -0.6760883816        1.6645485643       -0.3999810721
