  26
        -37.25849103
 C          2.5129807362       -1.3668941298        0.4725458219
 C          2.2712436828       -0.1442644490       -0.4135092096
 O          1.1435226074       -0.4022525355       -1.2279068893
 C          2.1157519982        1.1374550390        0.4204570472
 O          0.9084141667        1.2260550996        1.1421601088
 H          1.6990771888       -1.4991876326        1.1822496425
 H          3.4471953138       -1.2566030226        1.0157956821
 H          2.5679275375       -2.2545591849       -0.1515939274
 H          3.1496378443        0.0006042074       -1.0645218887
 H          0.6318959829        0.4192644611       -1.3551674071
 H          2.1480275687        2.0120516380       -0.2400842786
 H          2.9657032926        1.2018319926        1.1138370158
 H          0.5368680178        0.3317861329        1.2615654483
 C         -3.1461936065       -1.3738545848        0.2778474370
 C         -2.0565657710       -0.3105737393        0.4208873951
 O         -0.8003341130       -0.9035485613        0.6762090765
 C         -2.0386827020        0.5882460290       -0.8260564866
 O         -0.9145317428        1.4319796680       -0.9207093892
 H         -3.1695586273       -1.9941852271        1.1695988969
 H         -2.9397837351       -2.0091074932       -0.5808420682
 H         -4.1168347712       -0.9047278457        0.1456959653
 H         -2.2634180839        0.3051984389        1.3067261999
 H         -0.3587203025       -1.1173488542       -0.1672721255
 H         -2.9588868154        1.1887223806       -0.8338072939
 H         -2.0261447399       -0.0336252305       -1.7281826125
 H         -0.5944504789        1.6609531717       -0.0284397638
