  26
        -37.25818272
 C          3.6837748345       -0.6149718533       -0.4811602554
 C          2.3269478755        0.0764250742       -0.4307949876
 O          1.3320474023       -0.8586996664       -0.7951772522
 C          2.0660456882        0.6388430120        0.9845701650
 O          0.7495965578        1.1150289694        1.1472162461
 H          3.8771249811       -0.9686661772       -1.4899230375
 H          3.6820572635       -1.4704416320        0.1892844694
 H          4.4698242850        0.0735813404       -0.1844230052
 H          2.3149039020        0.9145379922       -1.1441112540
 H          0.5399243174       -0.3498589078       -1.0432071838
 H          2.7300763257        1.4879253410        1.1620612549
 H          2.2796519477       -0.1394673495        1.7272712691
 H          0.1656179928        0.3344561439        1.1904047798
 C         -3.6436325581       -0.8403152827        0.5007582664
 C         -2.3282504719       -0.0685199543        0.4279387147
 O         -1.2357267527       -0.8576978801        0.8540912494
 C         -2.1038303038        0.4814266588       -0.9921363553
 O         -0.7951116599        0.9452401553       -1.2100657312
 H         -3.7955192018       -1.2121385183        1.5104840559
 H         -3.6245976712       -1.6872154923       -0.1827143606
 H         -4.4740031230       -0.1933077064        0.2336271209
 H         -2.3495554521        0.7663394998        1.1389172335
 H         -1.0509170759       -1.5450047418        0.2006647327
 H         -2.8338150715        1.2799578738       -1.1821157027
 H         -2.2610274320       -0.3122699572       -1.7300859407
 H         -0.4888060697        1.4611074155       -0.4430062044
