  26
        -37.25915445
 C          2.8117892128       -0.6923169361       -1.3925483065
 C          2.4501505851        0.0040795500       -0.0864407710
 O          1.8141136590        1.2423993693       -0.2934543665
 C          1.5491756587       -0.8911385092        0.7945110613
 O          0.8087341761       -0.1044953908        1.7010831096
 H          3.4833479826       -0.0648800518       -1.9725591177
 H          1.9135765199       -0.8728825446       -1.9810981700
 H          3.2995369814       -1.6420676525       -1.1905476386
 H          3.3603485328        0.2503686363        0.4729932451
 H          1.0390295873        1.1145067614       -0.8754592403
 H          2.1542249981       -1.6106779880        1.3550231519
 H          0.8502766618       -1.4528585622        0.1596302873
 H          1.0268325272        0.8200938368        1.4824097368
 C         -2.8109624086       -1.4318928582        0.6109422582
 C         -2.4501869230       -0.0546808704        0.0679743753
 O         -1.8143450935        0.7542927621        1.0282005832
 C         -1.5495821770       -0.1647281242       -1.1835200861
 O         -0.8088645357        1.0218121978       -1.3632709879
 H         -3.2972795207       -2.0247448783       -0.1589563795
 H         -3.4835038021       -1.3307195236        1.4585931726
 H         -1.9125535132       -1.9499100655        0.9430504833
 H         -3.3607575449        0.4950473466       -0.1980022593
 H         -1.0388204976        0.2801901596        1.3883583839
 H         -2.1550098909       -0.3484801000       -2.0766639898
 H         -0.8508955357       -1.0042982421       -1.0650840331
 H         -1.0271858186        1.5838724705       -0.5973601798
