  26
        -37.25839792
 C          3.3968023534       -0.8167345332       -0.7085582712
 C          2.0066596207       -0.2438087273       -0.4496645716
 O          1.0686075440       -1.2829523142       -0.1948157473
 C          2.0145470319        0.6850789473        0.7758696932
 O          0.8370673388        1.4365200491        0.9073363291
 H          3.7349814943       -1.3771138793        0.1601439426
 H          4.1022588542       -0.0161008150       -0.9091261188
 H          3.3781750780       -1.4842292326       -1.5685276664
 H          1.6738754827        0.3344501835       -1.3251865345
 H          1.0646972006       -1.8869432677       -0.9447707900
 H          2.8272120780        1.4063782914        0.6589668246
 H          2.1988371702        0.0826043979        1.6725911402
 H          0.1327071239        0.8662068540        1.2780045594
 C         -2.5660008768       -1.3802364164       -0.5055578363
 C         -2.3306872536       -0.2081405619        0.4406644271
 O         -1.1907347375       -0.4293178821        1.2517125324
 C         -2.2038309043        1.1125116105       -0.3541482413
 O         -1.0792754259        1.1376584317       -1.1960445792
 H         -2.5236176486       -2.3198074776        0.0408894779
 H         -1.7996475087       -1.3766182772       -1.2786635035
 H         -3.5387268478       -1.2919839438       -0.9807945948
 H         -3.1712782768       -0.1043524823        1.1367324208
 H         -0.5148356967       -0.8719042421        0.7045157627
 H         -2.1793406997        1.9541976121        0.3489023321
 H         -3.0821491900        1.2176313951       -0.9963307238
 H         -0.3031745667        1.3308306347       -0.6414607291
