  26
        -37.25902577
 C          1.9061481877        0.1580609962        1.6035646213
 C          2.4161108364       -0.4474275144        0.2968137401
 O          1.7439572968       -1.6436875479       -0.0314867222
 C          2.3372079062        0.5621394889       -0.8663623968
 O          1.0162624046        0.9374375838       -1.1851177440
 H          0.8985887221        0.5500738778        1.4834054158
 H          2.5553496818        0.9715394549        1.9148850918
 H          1.8998206015       -0.6034208164        2.3800502319
 H          3.4663079183       -0.7387722253        0.4106584944
 H          0.7903721027       -1.4762865083       -0.0614192788
 H          2.8174212235        0.1197381892       -1.7497213264
 H          2.8629626136        1.4802580357       -0.5993140043
 H          0.4925500912        0.1230593886       -1.2813390701
 C         -3.2428816122       -1.1683993751        0.2749553365
 C         -1.9131764336       -0.4239982780        0.2675851655
 O         -1.0638811573       -0.9257639118       -0.7608762789
 C         -2.1204543646        1.0972527083        0.1238002633
 O         -1.0142680150        1.8485309098        0.5297227703
 H         -3.0665126432       -2.2415070613        0.2993653153
 H         -3.8170355427       -0.9260316185       -0.6187015757
 H         -3.8257660159       -0.8909943020        1.1476767284
 H         -1.3697137554       -0.6145354901        1.1989209073
 H         -1.5696752470       -0.9568647140       -1.5817897075
 H         -2.9449381795        1.4004956285        0.7739113333
 H         -2.3963577735        1.3251635852       -0.9179369385
 H         -0.2673156183        1.6910691461       -0.0798558450
