%nprocshared=4
%mem=8000mb
%chk=dimer.chk
%nprocshared=4
%mem=8000mb
#T wB97XD/def2svpp opt=tight freq int(grid=ultrafine) scf=(verytight,qc) Volume=tight

Dimer

0 1
 C          3.3796655980       -0.6488597274       -0.8792386793
 C          1.9813917830       -0.2652055539       -0.4053869616
 O          1.2247508405       -1.4215395804       -0.0722972734
 C          2.0535542439        0.7152493991        0.7799997922
 O          0.8379686664        1.3538769081        1.0561431463
 H          3.8974861347        0.2210542462       -1.2711048361
 H          3.3105313566       -1.3983880372       -1.6640933771
 H          3.9602572502       -1.0583839163       -0.0534547033
 H          1.4257991365        0.2070795962       -1.2219640617
 H          1.7141859964       -1.9217493084        0.5920977812
 H          2.7636566090        1.5099169571        0.5396329260
 H          2.4201686609        0.1771933110        1.6685140940
 H          0.1615562178        0.6847994556        1.2983331222
 C         -3.1332957415       -1.3538201991       -0.0371630799
 C         -2.2473914815       -0.1446429249        0.2568445988
 O         -1.1587847633       -0.5181716602        1.0844325884
 C         -1.7618521166        0.4993707418       -1.0538773259
 O         -1.2404477556        1.7898614020       -0.9030927346
 H         -2.5974250163       -2.0665796688       -0.6621090854
 H         -4.0384938858       -1.0458988324       -0.5515575365
 H         -3.4060816657       -1.8431919899        0.8945522228
 H         -2.8018023427        0.5996474174        0.8377809085
 H         -0.5725090883       -1.1037690445        0.5709570364
 H         -2.6091240067        0.5996087243       -1.7366863000
 H         -1.0229397646       -0.1755950871       -1.5184766250
 H         -0.5057060475        1.7768372561       -0.2640284802


