  36
        -46.64726494
 C         -1.8710404719        0.1813418465        1.7525480766
 C         -2.5104236475        0.3733215295        0.3754242326
 C         -4.0250529986        0.1441972389        0.4669025776
 C         -2.2116122624        1.7865130723       -0.1291324646
 C         -1.9621638584       -0.7058032091       -0.5607458858
 N         -1.9760015758       -0.4222057182       -1.8770363812
 O         -1.6192268495       -1.8048430275       -0.1549442238
 H         -1.9760552807       -0.8520232223        2.0727489003
 H         -2.3455845098        0.8293676281        2.4856931687
 H         -0.8117689682        0.4225360251        1.7031207762
 H         -4.4886979811        0.2388603139       -0.5130074165
 H         -4.4723852284        0.8759090999        1.1364774889
 H         -4.2320009872       -0.8519679552        0.8510224194
 H         -1.1624988311        1.8671595594       -0.4051983421
 H         -2.4167310924        2.5043484704        0.6626322577
 H         -2.8347305212        2.0519561638       -0.9814601887
 H         -2.0092835917        0.5322457441       -2.1865497234
 H         -1.5172914294       -1.0810259244       -2.4869544083
 C          2.6618885110        1.3456772247        1.2601495891
 C          2.8843175691        0.2928737472        0.1657454086
 C          3.4653943699        0.9629473141       -1.0827247159
 C          3.8511391534       -0.7796726606        0.6675904564
 C          1.4888937420       -0.2405426773       -0.1958126252
 N          1.1634701834       -1.4652653460        0.2413694212
 O          0.7063541051        0.4414868414       -0.8360894529
 H          3.6063255679        1.8117811081        1.5331301244
 H          2.2295898042        0.8904726964        2.1498973604
 H          1.9826331426        2.1156283092        0.9021861682
 H          3.7009013589        0.2162506786       -1.8383591748
 H          4.3729105941        1.5091802008       -0.8356141011
 H          2.7381367657        1.6545874178       -1.4997998538
 H          3.5497408976       -1.1730671519        1.6371594728
 H          4.8397942772       -0.3400393722        0.7873522939
 H          3.9321757293       -1.5988134026       -0.0444637488
 H          1.7778669050       -2.0101398816        0.8163525375
 H          0.2107638984       -1.7920819738        0.1028307686
