  36
        -46.64717611
 C         -4.0774434622       -0.2417894678        0.0606874842
 C         -2.5635032777       -0.4095850155       -0.1259448668
 C         -2.0253766451       -1.4302514025        0.8793841549
 C         -2.2470710695       -0.8823074292       -1.5463641770
 C         -1.9321920064        0.9486874465        0.1873471017
 N         -1.8617653381        1.8265451975       -0.8313489449
 O         -1.5959297847        1.2639919994        1.3176198061
 H         -4.5828383108       -1.1861364229       -0.1305853774
 H         -4.4691897465        0.5082127172       -0.6235781588
 H         -4.2984624792        0.0716850520        1.0783702521
 H         -2.1407462171       -1.0541008200        1.8926102066
 H         -0.9683725146       -1.6070453156        0.6941967497
 H         -2.5609552654       -2.3723117030        0.7882284584
 H         -2.8091234556       -0.3241232776       -2.2932011152
 H         -2.5196303800       -1.9308892439       -1.6478800857
 H         -1.1816140866       -0.7821387213       -1.7416872174
 H         -1.8925113071        1.5002878991       -1.7802341183
 H         -1.3495895803        2.6780336026       -0.6607328867
 C          3.5915885245       -0.8238756974        1.2274797375
 C          2.8953072356       -0.4269085227       -0.0742286779
 C          3.7198142518        0.6459547651       -0.7971815780
 C          2.7510232373       -1.6585727776       -0.9738973901
 C          1.4912917724        0.1680399475        0.1202021604
 N          1.1460150818        0.5488949727        1.3580525566
 O          0.7412012877        0.3184355364       -0.8297618803
 H          3.8252090099        0.0456721300        1.8395365815
 H          4.5316305468       -1.3195351939        0.9912838981
 H          2.9835456747       -1.5192961984        1.8037023704
 H          3.2277737174        0.9284465730       -1.7245168902
 H          4.7132998812        0.2670748553       -1.0280142218
 H          3.8212419101        1.5342097618       -0.1761794629
 H          2.2231538756       -2.4530000132       -0.4495486330
 H          3.7288071708       -2.0283935870       -1.2740620917
 H          2.1833457751       -1.3984764807       -1.8635140565
 H          1.7350466913        0.3905496663        2.1535368449
 H          0.2067076101        0.9060674422        1.5119739976
