  36
        -46.64707449
 C         -3.3540045918        1.0294301063        1.1467431205
 C         -2.8441037542       -0.1472587021        0.3113865192
 C         -2.7519332343       -1.3954080924        1.1928138824
 C         -3.7989803607       -0.4104778403       -0.8601860191
 C         -1.4586086538        0.1034547588       -0.3059244713
 N         -1.1451149002        1.3774353176       -0.5880246318
 O         -0.7071968753       -0.8168205271       -0.5780549706
 H         -2.6057641839        1.3480909108        1.8704065090
 H         -4.2426764695        0.7214051514        1.6945831669
 H         -3.6335742431        1.8778474386        0.5246259566
 H         -2.2921275671       -2.2070209303        0.6352806440
 H         -3.7415133071       -1.7059203532        1.5198015088
 H         -2.1401046429       -1.1950140114        2.0701533558
 H         -3.4532505409       -1.2634569916       -1.4391578135
 H         -3.8486916459        0.4548956244       -1.5184355051
 H         -4.7993814295       -0.6233809121       -0.4886333108
 H         -1.7227877671        2.1441333965       -0.2981975472
 H         -0.2054909744        1.5808284079       -0.9176055733
 C          3.9832152493        0.0821891678        0.5587017364
 C          2.4639569741       -0.1339695668        0.5490293910
 C          2.1286090426       -1.5943660864        0.8598431956
 C          1.8045963524        0.7709157188        1.5923788954
 C          1.9714871929        0.2918546289       -0.8363047089
 N          2.0238494305       -0.6436130907       -1.8036774425
 O          1.6406808553        1.4400843459       -1.0846473930
 H          4.4634073618       -0.5243162288       -0.2065457698
 H          4.3919457803       -0.1927490285        1.5288829015
 H          4.2156503392        1.1270068628        0.3661684750
 H          1.0852587839       -1.7940798219        0.6253343647
 H          2.2870056142       -1.7847335213        1.9195215257
 H          2.7645473997       -2.2819902002        0.3050018540
 H          1.9310801675        1.8144268804        1.3157587501
 H          2.2481849112        0.6076312433        2.5717954482
 H          0.7401647126        0.5546435316        1.6482786516
 H          2.0440264458       -1.6177096483       -1.5614514829
 H          1.5991674440       -0.4051613176       -2.6864294367
