  36
        -46.64724564
 C         -4.0700964136        0.1180113865        0.3425926175
 C         -2.5490421159        0.3005684739        0.4326760722
 C         -2.1962758251        1.7782805098        0.6142462679
 C         -1.9981017615       -0.5013100191        1.6140335768
 C         -1.9629273309       -0.2826263652       -0.8546950525
 N         -1.8887746470        0.5486859176       -1.9113123524
 O         -1.6645506424       -1.4619587032       -0.9567160335
 H         -4.4718784303        0.6530330882       -0.5155736212
 H         -4.5447712030        0.4989745006        1.2444476134
 H         -4.3167110561       -0.9359805012        0.2376770695
 H         -1.1308745615        1.9282734229        0.4533061530
 H         -2.4388902654        2.0858705341        1.6295272672
 H         -2.7611656992        2.4151079264       -0.0643924736
 H         -2.1437107380       -1.5649676016        1.4444424445
 H         -2.5021646329       -0.2171813604        2.5348127850
 H         -0.9327690041       -0.3115383816        1.7227314796
 H         -1.8872081471        1.5428740455       -1.7717314495
 H         -1.4064129028        0.2035632039       -2.7265710917
 C          3.0247286025       -0.5849395370        1.7322198127
 C          2.9096635035        0.0430713702        0.3386181457
 C          3.1838283588        1.5444451344        0.4347736199
 C          3.9163502344       -0.5987834440       -0.6218663744
 C          1.4838801501       -0.1629124228       -0.1979693938
 N          1.1019618129       -1.4408051795       -0.3527263157
 O          0.7478543775        0.7662817321       -0.4764312192
 H          2.2734445844       -0.1672918741        2.3994084838
 H          4.0076039190       -0.3760935742        2.1502661916
 H          2.8937026121       -1.6645414151        1.7018393668
 H          3.0773298531        2.0089308453       -0.5420578164
 H          4.1908340150        1.7236752173        0.8042468101
 H          2.4717322573        2.0146586050        1.1081399558
 H          3.7824830961       -1.6763344708       -0.6859476285
 H          4.9303041579       -0.4030028350       -0.2782109391
 H          3.8052579840       -0.1802885089       -1.6197977564
 H          1.6845919294       -2.2082091144       -0.0742984903
 H          0.1459223327       -1.6368121378       -0.6360681610
