  36
        -46.64711367
 C         -3.3414304914        1.7207018500        0.1718717822
 C         -2.9331473669        0.2497551730        0.2985845411
 C         -3.0350918780       -0.1813590623        1.7626866956
 C         -3.8487380289       -0.6285618996       -0.5635900497
 C         -1.4935397942        0.0063361668       -0.1833937731
 N         -1.1341219456        0.6466903641       -1.3065208248
 O         -0.7387596728       -0.7601877076        0.3883050395
 H         -2.5869133635        2.3703786948        0.6110161089
 H         -4.2787735783        1.8822509829        0.7008093263
 H         -3.4969276342        2.0139163962       -0.8645990057
 H         -2.6506284256       -1.1908678228        1.8802061156
 H         -4.0696406431       -0.1540710688        2.0967360189
 H         -2.4445894239        0.4800907988        2.3926698977
 H         -3.7612181229       -0.3674605159       -1.6164908435
 H         -4.8855639308       -0.4991843676       -0.2593086113
 H         -3.5819058680       -1.6764768483       -0.4469401410
 H         -1.7319985459        1.3161612446       -1.7534287440
 H         -0.1819475731        0.5423579508       -1.6468131228
 C          2.2755970441       -0.6122603149        1.7316847799
 C          2.6075279169        0.1331656292        0.4372687366
 C          2.1238798933        1.5807721092        0.5479253560
 C          4.1190259605        0.1058168486        0.1734748476
 C          1.9388652746       -0.5002467538       -0.7841843035
 N          1.8146699124       -1.8409941181       -0.7723664880
 O          1.6170529384        0.1550873893       -1.7625968765
 H          1.2032553856       -0.7830245619        1.7970150109
 H          2.5819211606       -0.0098422138        2.5845722880
 H          2.8016141643       -1.5632123167        1.7970882067
 H          1.0677065701        1.5964295255        0.8070045412
 H          2.2540656842        2.0925982815       -0.4020573955
 H          2.6827529987        2.1108896903        1.3155213007
 H          4.4702455929       -0.9169057559        0.0514554798
 H          4.6504232115        0.5597193842        1.0073590409
 H          4.3530115961        0.6606296925       -0.7321617351
 H          1.8380509848       -2.3416351296        0.0975331001
 H          1.2801848006       -2.2538620394       -1.5208312715
