  36
        -46.64725148
 C         -3.7745277442        0.8415288712       -0.7654070781
 C         -2.8706576037       -0.2580646020       -0.2095440979
 C         -3.5389140595       -0.9070537550        1.0069284703
 C         -2.6234507900       -1.3200840492       -1.2890277916
 C         -1.4828919335        0.2289119408        0.2365456805
 N         -1.1503686987        1.4990476763       -0.0333019371
 O         -0.7157448242       -0.5278279878        0.8083047678
 H         -3.9191353943        1.6384613467       -0.0382098024
 H         -4.7508425090        0.4174570804       -0.9937695352
 H         -3.3755151582        1.2605932925       -1.6879010580
 H         -2.8648108824       -1.6349361831        1.4509454336
 H         -4.4584297187       -1.4089965487        0.7140382228
 H         -3.7749299463       -0.1547114550        1.7569415191
 H         -2.1466585411       -0.8766081011       -2.1617326330
 H         -3.5635558385       -1.7712831622       -1.5989959289
 H         -1.9725100481       -2.0987261444       -0.8991119243
 H         -1.7484355766        2.1107982388       -0.5558882651
 H         -0.2004572924        1.8023816714        0.1651433363
 C          2.1514780866       -1.7914938423       -0.1550372434
 C          2.4915850499       -0.3263729641       -0.4370599571
 C          4.0124112166       -0.1281545446       -0.4896477082
 C          1.8664165747        0.0918255283       -1.7698221344
 C          1.9658818967        0.6097321975        0.6536452220
 N          1.9891354875        0.1342172801        1.9131561725
 O          1.6326041475        1.7601749263        0.4183249775
 H          2.7683667027       -2.2036921536        0.6415853553
 H          2.3324131361       -2.3842172131       -1.0495193903
 H          1.1014973857       -1.8831547532        0.1140298680
 H          4.2490267845        0.9092345764       -0.7143295297
 H          4.4432602398       -0.7594550507       -1.2640454019
 H          4.4677316151       -0.3865900602        0.4642776062
 H          0.8010212608       -0.1264079851       -1.7615641819
 H          2.3294683387       -0.4475713694       -2.5927929579
 H          1.9993883050        1.1591274953       -1.9266569469
 H          2.0126464375       -0.8560386108        2.0770999433
 H          1.5421217776        0.6993854267        2.6182974066
