  36
        -46.65544437
 C         -3.9951347042       -0.7865835123       -1.2238542245
 C         -3.5386396755        0.0002731635        0.0104763058
 C         -4.1515841569        1.3997638869       -0.0160269509
 C         -3.9819824418       -0.7334302604        1.2818244116
 C         -2.0038386412       -0.0128132112        0.0028249196
 N         -1.3559095879        1.1489515574       -0.0232104722
 O         -1.4068654491       -1.0857235216        0.0207097401
 H         -5.0759792636       -0.9085692962       -1.2170406089
 H         -3.5294360570       -1.7686742719       -1.2272031469
 H         -3.7084225913       -0.2660760762       -2.1357555282
 H         -3.8609948979        1.9777622662        0.8597173769
 H         -5.2365765718        1.3124893595       -0.0090366934
 H         -3.8693536338        1.9403769370       -0.9179858118
 H         -3.5154049957       -1.7142738023        1.3224205247
 H         -5.0627345302       -0.8561304868        1.2911201842
 H         -3.6866274037       -0.1743337727        2.1677537315
 H         -1.8424945579        2.0256796606       -0.0376614633
 H         -0.3248860863        1.1639842638       -0.0277627509
 C          4.0085054251       -0.7042559775        1.2707634777
 C          3.5386123109        0.0005315383       -0.0067187600
 C          4.1010905246        1.4220929513       -0.0400224671
 C          4.0147677695       -0.7655832481       -1.2459012554
 C          2.0049740652        0.0736743664       -0.0105496613
 N          1.3553301099       -1.0899154750        0.0106465238
 O          1.4111090896        1.1454688180       -0.0311475402
 H          3.6305950410       -0.1857262980        2.1493032497
 H          5.0958813745       -0.7036114593        1.3128058573
 H          3.6689537573       -1.7370470158        1.3102064632
 H          3.7618154246        1.9400837176       -0.9332375212
 H          5.1883285130        1.3994665237       -0.0355680206
 H          3.7554851042        1.9837121091        0.8239023698
 H          3.6788662483       -1.8002462576       -1.2350814806
 H          5.1022877205       -0.7635147000       -1.2842326818
 H          3.6384452605       -0.2926931158       -2.1504818988
 H          1.8468500876       -1.9643777485        0.0290027149
 H          0.3245772618       -1.1099734849        0.0132122724
