  36
        -46.65527505
 C         -4.0292536322        0.6442395285       -1.3034982839
 C         -3.5390808366       -0.0119412363       -0.0081388096
 C         -4.0071799007        0.7934262745        1.2093366156
 C         -4.0896277756       -1.4358094628        0.0803040644
 C         -2.0048912552       -0.0724259595       -0.0065589095
 N         -1.3652471764        1.0910751223       -0.1244857010
 O         -1.4019521131       -1.1335138057        0.1035406947
 H         -3.7188911097        1.6845393183       -1.3736038057
 H         -5.1163615805        0.6138830654       -1.3416839768
 H         -3.6405602771        0.1112420839       -2.1685861860
 H         -3.6318336175        0.3440213115        2.1261966284
 H         -5.0945518728        0.8012492409        1.2505052347
 H         -3.6614145179        1.8240649831        1.1669687315
 H         -3.7589214375       -2.0208998829       -0.7739265374
 H         -5.1768367632       -1.4210474642        0.0992382182
 H         -3.7266485322       -1.9240276651        0.9808360029
 H         -1.8640342041        1.9570981259       -0.2128632031
 H         -0.3351183645        1.1203498102       -0.1254021662
 C          4.1046178400       -1.0851017006        0.9241445743
 C          3.5394005910        0.0131038812        0.0193022648
 C          4.0684942901        1.3736591746        0.4774533396
 C          3.9538498480       -0.2394540159       -1.4366464124
 C          2.0046913473        0.0550146357        0.0313179930
 N          1.3659887391       -1.1072385884        0.1552764057
 O          1.4000317847        1.1121939277       -0.1128167250
 H          3.6600052148       -1.0365395928        1.9161620066
 H          5.1794025572       -0.9486415000        1.0265776216
 H          3.9406721223       -2.0787734729        0.5111786593
 H          3.5931814165        2.1673687661       -0.0923180520
 H          5.1451702030        1.4303399114        0.3355051158
 H          3.8440141540        1.5307234715        1.5301282009
 H          3.5535856393       -1.1859705008       -1.7954819427
 H          5.0385888526       -0.2684812656       -1.5168315812
 H          3.5793269614        0.5563016382       -2.0762972876
 H          1.8631740719       -1.9704122327        0.2724481030
 H          0.3360675901       -1.1369816395        0.1353253600
