  36
        -46.64714294
 C         -2.2419940117        1.4867382176        0.9563938090
 C         -2.5705876742        0.0899002889        0.4244689248
 C         -2.0471032005       -0.9620486484        1.4047999724
 C         -4.0855519365       -0.0739928118        0.2432060251
 C         -1.9346293695       -0.1711999767       -0.9426151160
 N         -1.8744108071        0.8782041351       -1.7843669031
 O         -1.5852608032       -1.2859530890       -1.2963231281
 H         -1.1758026797        1.6794398076        0.8591667348
 H         -2.5092928171        1.5455270807        2.0095841923
 H         -2.8009969042        2.2606039223        0.4330863465
 H         -2.1713062616       -1.9577239638        0.9869345376
 H         -2.5854752339       -0.9040008144        2.3479030233
 H         -0.9888248158       -0.7959089761        1.5928708366
 H         -4.4663383704        0.6409100448       -0.4834523106
 H         -4.5934224506        0.0888442197        1.1915912291
 H         -4.3162238508       -1.0773022795       -0.1074775909
 H         -1.9175211714        1.8147577306       -1.4252809516
 H         -1.3580283069        0.7438091577       -2.6397389263
 C          2.7906019778        1.0706909748        1.5860782102
 C          2.8987361956        0.0829696666        0.4208916266
 C          3.7624553021        0.6904105684       -0.6923091639
 C          3.5286723594       -1.2206369131        0.9137944547
 C          1.4932113927       -0.0946530309       -0.1761071150
 N          1.1616713119       -1.3200746568       -0.6074133091
 O          0.7357847070        0.8535420315       -0.2948647809
 H          2.2523603442        1.9588513587        1.2657284164
 H          3.7793611646        1.3616679704        1.9330856660
 H          2.2471734321        0.6213731915        2.4149928030
 H          3.8282212221        0.0119475724       -1.5409838588
 H          4.7676340616        0.8862866981       -0.3245053314
 H          3.3260437900        1.6262288509       -1.0327018922
 H          4.4507190110       -0.9925393827        1.4456077682
 H          3.7840907313       -1.8832177939        0.0885405833
 H          2.8649319701       -1.7416331789        1.6016761491
 H          1.7557086271       -2.1158329323       -0.4706757172
 H          0.2232299973       -1.4708229602       -0.9682003638
