  36
        -46.64690747
 C         -3.9502544574        0.7116206515        0.5668591100
 C         -3.0704637374       -0.3804201114       -0.0555190481
 C         -3.1772698185       -1.6624999108        0.7721717862
 C         -3.5209535339       -0.6635366703       -1.4916599519
 C         -1.6201308206        0.1254962503        0.0157503868
 N         -1.2439250833        0.9749107069       -0.9535595594
 O         -0.8761526670       -0.1736546126        0.9330837531
 H         -3.6588465592        0.8840984974        1.6003833257
 H         -4.9948140052        0.4070305731        0.5473507880
 H         -3.8513135616        1.6479991756        0.0209583012
 H         -2.6246169881       -2.4676468642        0.2930406706
 H         -4.2171011301       -1.9634267612        0.8764510189
 H         -2.7530447574       -1.5025225065        1.7596695497
 H         -3.6840255340        0.2524368889       -2.0566223600
 H         -4.4640633728       -1.2064410438       -1.4730361520
 H         -2.7876539391       -1.2751282348       -2.0137844508
 H         -1.8300870565        1.1636317393       -1.7452009177
 H         -0.2761893986        1.2924492029       -0.9890515100
 C          3.5327569882       -0.7814428538        1.2783359315
 C          2.8862011892       -0.3432125195       -0.0352636475
 C          3.9719984948        0.0151320705       -1.0538760337
 C          2.0038400180       -1.4748215436       -0.5832312032
 C          1.9471632317        0.8539262835        0.1094098168
 N          1.5939851419        1.2184017657        1.3549589256
 O          1.5339491988        1.4570566172       -0.8699962509
 H          4.0355907989        0.0516003529        1.7654005896
 H          4.2751475269       -1.5499755548        1.0711860906
 H          2.7999779868       -1.2097378688        1.9596943316
 H          3.5162705726        0.4352918519       -1.9466739979
 H          4.5402113635       -0.8701712516       -1.3298276709
 H          4.6539783727        0.7532470889       -0.6367569483
 H          1.1566929460       -1.6462824144        0.0784416381
 H          2.5792830847       -2.3938770581       -0.6694060687
 H          1.6215717923       -1.2055390519       -1.5649079576
 H          1.7144326938        0.5819240493        2.1222875215
 H          0.8244316212        1.8658509191        1.4353539088
