  36
        -46.64703555
 C         -3.2521649844        0.7749100814       -1.5022837400
 C         -3.0562101848       -0.1485968183       -0.2946549251
 C         -4.0281876637        0.2260821922        0.8290943255
 C         -3.3026291559       -1.5969716681       -0.7189274653
 C         -1.6103034288       -0.0245800647        0.2123818921
 N         -1.2509524049        1.1953865723        0.6451602428
 O         -0.8437389638       -0.9701513606        0.2419284526
 H         -3.1541779092        1.8237435368       -1.2300174201
 H         -4.2455890484        0.6271970992       -1.9214468249
 H         -2.5177545213        0.5507193304       -2.2732037645
 H         -3.8630042101       -0.4074481324        1.6978910336
 H         -5.0533129441        0.0855180719        0.4916897877
 H         -3.9111028472        1.2633305065        1.1349246206
 H         -3.1400542390       -2.2673847959        0.1209556684
 H         -2.6130032116       -1.8792496719       -1.5102342919
 H         -4.3219166572       -1.7196015952       -1.0776684744
 H         -1.8593801249        1.9873828190        0.5502014852
 H         -0.2808179440        1.3679590143        0.9041537302
 C          3.5078662115       -1.4035512642       -0.4212905706
 C          2.8451200666       -0.0265918522       -0.4232692630
 C          3.9167166647        1.0656610039       -0.4853614643
 C          1.9014301598        0.0935340615       -1.6291227459
 C          1.9631585522        0.2349725154        0.7972858509
 N          1.6772751487       -0.8107522615        1.5930906887
 O          1.5366242327        1.3540799190        1.0414853271
 H          4.0640054749       -1.5704078143        0.4989862546
 H          4.2063708418       -1.4641377159       -1.2538533887
 H          2.7749712398       -2.1978533508       -0.5502960075
 H          3.4546008205        2.0428260713       -0.3716503294
 H          4.4395645835        1.0303468102       -1.4383257356
 H          4.6402281964        0.9325679255        0.3163345370
 H          1.0690944549       -0.6002008610       -1.5254613740
 H          2.4360225381       -0.1279035029       -2.5502001221
 H          1.5006331495        1.1025851893       -1.6883979796
 H          1.7991001439       -1.7499202420        1.2591845419
 H          0.9418175301       -0.6751384108        2.2702044165
