%chk=42.chk
%nprocshared=4
%mem=8000mb
#T wB97XD/def2svpp opt=tight freq int(grid=ultrafine) scf=(verytight,qc)

Comment gs min

0 1
C          0.99992       -0.08274        0.08050
C          2.52784       -0.03319        0.08261
C          3.06358        0.46833        1.42452
N          3.05383       -1.40090       -0.25925
O          3.71923       -1.99959        0.59861
O          2.73151       -1.88690       -1.35338
N          3.06656        0.84800       -1.01205
O          2.25461        1.44030       -1.73776
O          4.29695        0.98729       -1.08547
H          0.62986       -0.76310        0.85696
H          0.58901       -0.43117       -0.87463
H          0.56983        0.90622        0.27919
H          2.69778       -0.14904        2.25370
H          2.73996        1.49881        1.61552
H          4.15915        0.45973        1.47292


