%nprocshared=4
%mem=8000mb
%chk=3.chk
%mem=8000mb
#T wB97XD/def2svpp opt=tight freq int(grid=ultrafine) scf=(verytight,qc)

comment

1 2
F       -0.811466   -0.600829    0.843531
C       -0.000003    0.000015    0.000009
F        0.310168   -0.827333   -0.974830
F       -0.594298    1.062562   -0.498856
F        1.095597    0.365589    0.630148


