  26
        -37.25446845
 O         -1.9378567898       -1.9460973323       -0.3942662610
 C         -2.7423242644       -1.2039891668        0.4982427291
 C         -2.1550118315        0.1701586406        0.8328004198
 C         -1.9953987205        1.0470799631       -0.4129534482
 O         -1.1513959434        0.4659629625       -1.3863918479
 H         -1.0494580468       -2.0299028343       -0.0166133369
 H         -2.9003608792       -1.7689162993        1.4269456250
 H         -3.7079431851       -1.0933349620       -0.0038028484
 H         -1.1822228704        0.0377455610        1.3103939130
 H         -2.8140940592        0.6771713963        1.5371701584
 H         -1.5337245194        1.9996847109       -0.1426123120
 H         -2.9819086091        1.2472052688       -0.8523863114
 H         -1.5207976292       -0.4112802192       -1.5894468177
 O          0.8529613993       -0.8615703525       -0.0306956141
 C          2.1331459716       -0.7498424236       -0.6146478295
 C          2.6295127154        0.6974061535       -0.6577135723
 C          2.8390962869        1.2646227812        0.7499145421
 O          1.6445549243        1.3396543935        1.4860197344
 H          0.2480540469       -0.2822703124       -0.5460375375
 H          2.1170240635       -1.1650914050       -1.6317394895
 H          2.7999481442       -1.3639303007       -0.0018687263
 H          1.8921097579        1.3083873838       -1.1845786377
 H          3.5711137966        0.7372122124       -1.2055753322
 H          3.2289832269        2.2845300824        0.6931676840
 H          3.5753949396        0.6424505910        1.2838778310
 H          1.2018111809        0.4835367230        1.3726372973
