  26
        -37.25867943
 O         -1.0015640401        0.4550454401       -1.4135777573
 C         -1.8664583520       -0.6512835089       -1.2908446051
 C         -1.9722965369       -1.1596976182        0.1499945267
 C         -2.5484141367       -0.0884647109        1.0813754884
 O         -1.7511143229        1.0726554280        1.1292191964
 H         -1.2530367345        1.0716676557       -0.6990154290
 H         -1.4667671552       -1.4325398034       -1.9447012131
 H         -2.8689415051       -0.3805323264       -1.6530736294
 H         -0.9823651303       -1.4425557436        0.5136440908
 H         -2.6135172533       -2.0410778460        0.1722238783
 H         -2.6751155037       -0.5089783416        2.0884327084
 H         -3.5282637483        0.2377269049        0.7197533338
 H         -0.8631065751        0.8280685408        1.4506496788
 O          0.9863578784        0.4562515444        1.4224325676
 C          1.8882738230       -0.6175081207        1.2785457760
 C          2.0094813912       -1.0949247557       -0.1716615834
 C          2.5488667277        0.0121653759       -1.0829304262
 O          1.7146473185        1.1477461439       -1.1071841047
 H          1.2167224155        1.0946905685        0.7199777634
 H          1.5162033313       -1.4240076145        1.9178821031
 H          2.8814115941       -0.3195799122        1.6451502788
 H          1.0290999755       -1.4037474215       -0.5400627582
 H          2.6796247758       -1.9539166086       -0.2108131324
 H          2.6870915700       -0.3845363218       -2.0981138771
 H          3.5184303277        0.3626582026       -0.7163396681
 H          0.8342973289        0.8813599625       -1.4326437215
