  26
        -37.25420883
 O         -0.8582190638       -0.4924571921       -1.2454578979
 C         -1.3135018371        0.8212538902       -0.9812387741
 C         -1.9475526398        0.9517137304        0.4059491634
 C         -3.1696596505        0.0433459176        0.5593009533
 O         -2.8405139047       -1.3295940441        0.4620587946
 H         -1.5950219592       -1.0941617298       -1.0424821887
 H         -2.0400135773        1.1198252108       -1.7489645490
 H         -0.4371439638        1.4700616084       -1.0515389671
 H         -2.2470635394        1.9874916725        0.5608409808
 H         -1.2080975345        0.6910951020        1.1668752541
 H         -3.8853734233        0.2264474120       -0.2467592328
 H         -3.6679283879        0.2467242660        1.5161544833
 H         -2.2219232737       -1.5481611081        1.1703633591
 O          0.9074024852       -0.9672190802        0.8213835341
 C          2.1778902529       -1.2919582613        0.3026212429
 C          2.6694521759       -0.2721518898       -0.7283730939
 C          2.8901940433        1.1065064063       -0.0986719383
 O          1.7020415234        1.6680510581        0.4008038962
 H          0.3052025051       -0.8605172919        0.0525739731
 H          2.1516408949       -2.2911085608       -0.1552303378
 H          2.8564622062       -1.3248939048        1.1606300388
 H          1.9240882188       -0.1893795024       -1.5232295470
 H          3.6058069085       -0.6233911411       -1.1624853242
 H          3.2716363927        1.8082174550       -0.8457584353
 H          3.6364576276        1.0210349618        0.7073667884
 H          1.2694241002        0.9673948578        0.9163375620
