  26
        -37.25424034
 O         -0.9890128367       -1.0534673505       -0.0867944192
 C         -2.2683541283       -0.8611041476        0.4753123282
 C         -2.6036686543        0.6191150325        0.6760665438
 C         -2.6993559797        1.3643859568       -0.6587100582
 O         -1.4788825244        1.3819810921       -1.3558376570
 H         -0.3540772264       -0.5623636020        0.4808895838
 H         -2.3355313261       -1.3857298676        1.4390785974
 H         -2.9776363142       -1.3237017521       -0.2179500521
 H         -1.8215794339        1.0766133643        1.2872500437
 H         -3.5539199247        0.7033500081        1.2038229755
 H         -2.9720435090        2.4098682007       -0.4903531810
 H         -3.4825995695        0.8985994468       -1.2780268774
 H         -1.1442786472        0.4707979698       -1.3350623963
 O          2.3271093208       -1.8522695661        0.4498384081
 C          2.9670246739       -0.9366432740       -0.4176162158
 C          2.0491746672        0.2126123676       -0.8405549343
 C          1.6142300455        1.0673256749        0.3533668353
 O          0.9286089774        0.3189801736        1.3388484565
 H          1.5450519750       -2.2035096028        0.0041300104
 H          3.3420406510       -1.4575402602       -1.3084415244
 H          3.8246202678       -0.5560218628        0.1439819112
 H          1.1659344980       -0.1998640623       -1.3329497279
 H          2.5726916500        0.8472718198       -1.5547121430
 H          0.9192786921        1.8423662796        0.0215933599
 H          2.4936204694        1.5476997632        0.8031621407
 H          1.4856890333       -0.4496697357        1.5516749078
