  26
        -37.25450344
 O         -0.7665463054       -0.7959380378       -0.0396583615
 C         -2.0304791647       -0.8473478134        0.5870858634
 C         -2.6862531499        0.5313182720        0.6911568885
 C         -3.0005334728        1.1129434352       -0.6909972548
 O         -1.8444154886        1.3634943485       -1.4488363513
 H         -0.2058048933       -0.1783299483        0.4807880485
 H         -1.9326814937       -1.2870843096        1.5891366844
 H         -2.6435972539       -1.5156234566       -0.0249824748
 H         -2.0086541631        1.2075726851        1.2185932487
 H         -3.6096310558        0.4456594280        1.2642442908
 H         -3.5136224545        2.0730306062       -0.5893737191
 H         -3.6665826910        0.4206557974       -1.2309121266
 H         -1.2956408152        0.5660495023       -1.3844993757
 O          1.9368892599       -1.8844270370        0.3957620750
 C          2.7736109925       -1.1708040324       -0.4892730713
 C          2.2338018452        0.2204007987       -0.8346477961
 C          2.0802950122        1.1028751572        0.4081321957
 O          1.1925177873        0.5539597150        1.3606219422
 H          1.0467651964       -1.9298420902        0.0122004522
 H          2.9234804003       -1.7429697793       -1.4150559191
 H          3.7371228205       -1.0888078675        0.0223333791
 H          1.2649598355        0.1160406647       -1.3273819911
 H          2.9198251717        0.7057120740       -1.5286002245
 H          1.6624108013        2.0733074691        0.1298285293
 H          3.0638297359        1.2643380147        0.8696196642
 H          1.5303750849       -0.3329577414        1.5767899144
