  26
        -37.25591211
 O         -1.1777142896       -2.1603769079       -0.2512653275
 C         -1.8698904725       -0.9755253252       -0.6059421896
 C         -2.1379990033       -0.0608114999        0.5892996635
 C         -2.3639585122        1.3814620517        0.1204515905
 O         -1.2884914487        1.8758873163       -0.6250230005
 H         -1.7092446146       -2.6524619517        0.3843123289
 H         -2.8075629443       -1.2236562406       -1.1179083444
 H         -1.2207054823       -0.4569114427       -1.3153701183
 H         -1.2687056535       -0.0806803662        1.2514629336
 H         -3.0079933540       -0.4026539844        1.1536684843
 H         -2.5591890920        2.0165218851        0.9971198441
 H         -3.2355280015        1.4277107421       -0.5394770217
 H         -0.4789703566        1.8094367446       -0.0806234569
 O          1.2771904716       -1.3840915724        0.8862845260
 C          2.3038212647       -1.2160002795       -0.0684909130
 C          2.1010063854        0.0269724265       -0.9434210023
 C          2.1272757322        1.3059700237       -0.1038019510
 O          1.0701175795        1.3470452287        0.8294827703
 H          0.4651062522       -1.6694967094        0.4240122699
 H          2.3846776039       -2.1073340348       -0.7026638272
 H          3.2304335582       -1.1163298752        0.5055604771
 H          1.1406046606       -0.0426121642       -1.4587615499
 H          2.8925641985        0.0699445282       -1.6913247564
 H          2.0139035482        2.1865762180       -0.7412777804
 H          3.0896427850        1.3775636971        0.4237615034
 H          1.0486076456        0.4620519002        1.2403483539
