  26
        -37.25865207
 O         -0.7368748547       -1.2954226795        1.0622442034
 C         -2.1165321444       -1.0379377113        0.9315619085
 C         -2.4696375247        0.3871744377        0.5012730760
 C         -2.1128514250        0.7542586248       -0.9486146631
 O         -0.7526305262        1.0594365503       -1.1496383383
 H         -0.2936911528       -0.4949599131        1.4153896304
 H         -2.6078298938       -1.2376866985        1.8952498528
 H         -2.4933957534       -1.7611299735        0.2014881472
 H         -1.9806072388        1.0955489690        1.1745571459
 H         -3.5485577636        0.5043260401        0.6149135418
 H         -2.6617541025        1.6636080754       -1.2148505320
 H         -2.4311781632       -0.0484378541       -1.6232643905
 H         -0.2533549236        0.2303001295       -1.3186536803
 O          0.7824490780       -1.2089438503       -1.1630828630
 C          2.1365711275       -0.9776454490       -0.8483509244
 C          2.4608602156        0.4832948795       -0.4961995001
 C          2.0959876649        0.9181028283        0.9244660753
 O          0.7127112990        0.9941053329        1.1811257548
 H          0.2804258916       -1.4016623737       -0.3398885273
 H          2.6984870244       -1.2432328543       -1.7498369020
 H          2.4606589916       -1.6368010984       -0.0352546775
 H          1.9554346368        1.1362288253       -1.2121333012
 H          3.5367442732        0.6217501735       -0.6140320492
 H          2.5489641246        1.9033862264        1.1101437231
 H          2.5039462789        0.2133761793        1.6560507811
 H          0.2626996473        1.3286402471        0.3767033558
