  26
        -37.26295879
 O         -1.0645281711       -1.3395902397       -0.8035039513
 C         -2.2330809588       -1.2994798672       -0.0117326457
 C         -2.2828713669       -0.0506287829        0.8714725514
 C         -2.3073172878        1.2272834205        0.0234051663
 O         -1.1715058005        1.3544960772       -0.8025237766
 H         -0.9856376777       -0.4425972683       -1.1889169713
 H         -2.2267263064       -2.2051874124        0.6003262261
 H         -3.1184402900       -1.3248288727       -0.6625152823
 H         -1.4081172347       -0.0350208736        1.5254660255
 H         -3.1780489671       -0.0843795321        1.4921701802
 H         -2.4032855141        2.1019821435        0.6788753009
 H         -3.1675433686        1.2077223403       -0.6531771157
 H         -0.3845382153        1.4849331478       -0.2274593891
 O          1.1716294823       -1.3544022122        0.8033158463
 C          2.3076726082       -1.2271044218       -0.0223089819
 C          2.2824297739        0.0499235474       -0.8716726428
 C          2.2325574018        1.2997323408        0.0101830550
 O          1.0649000760        1.3397241677        0.8032862509
 H          0.3848431096       -1.4852111918        0.2281083289
 H          2.4046760087       -2.1024372645       -0.6767896466
 H          3.1675952234       -1.2061134197        0.6546159046
 H          1.4074482848        0.0332134447       -1.5253305956
 H          3.1773335834        0.0834064717       -1.4927597986
 H          2.2246930845        2.2047516085       -0.6029012292
 H          3.1186336322        1.3266096153        0.6599347986
 H          0.9865149606        0.4428034753        1.1890233686
  26
        -37.25867943
 O         -1.0015640401        0.4550454401       -1.4135777573
 C         -1.8664583520       -0.6512835089       -1.2908446051
 C         -1.9722965369       -1.1596976182        0.1499945267
 C         -2.5484141367       -0.0884647109        1.0813754884
 O         -1.7511143229        1.0726554280        1.1292191964
 H         -1.2530367345        1.0716676557       -0.6990154290
 H         -1.4667671552       -1.4325398034       -1.9447012131
 H         -2.8689415051       -0.3805323264       -1.6530736294
 H         -0.9823651303       -1.4425557436        0.5136440908
 H         -2.6135172533       -2.0410778460        0.1722238783
 H         -2.6751155037       -0.5089783416        2.0884327084
 H         -3.5282637483        0.2377269049        0.7197533338
 H         -0.8631065751        0.8280685408        1.4506496788
 O          0.9863578784        0.4562515444        1.4224325676
 C          1.8882738230       -0.6175081207        1.2785457760
 C          2.0094813912       -1.0949247557       -0.1716615834
 C          2.5488667277        0.0121653759       -1.0829304262
 O          1.7146473185        1.1477461439       -1.1071841047
 H          1.2167224155        1.0946905685        0.7199777634
 H          1.5162033313       -1.4240076145        1.9178821031
 H          2.8814115941       -0.3195799122        1.6451502788
 H          1.0290999755       -1.4037474215       -0.5400627582
 H          2.6796247758       -1.9539166086       -0.2108131324
 H          2.6870915700       -0.3845363218       -2.0981138771
 H          3.5184303277        0.3626582026       -0.7163396681
 H          0.8342973289        0.8813599625       -1.4326437215
  26
        -37.25865207
 O         -0.7368748547       -1.2954226795        1.0622442034
 C         -2.1165321444       -1.0379377113        0.9315619085
 C         -2.4696375247        0.3871744377        0.5012730760
 C         -2.1128514250        0.7542586248       -0.9486146631
 O         -0.7526305262        1.0594365503       -1.1496383383
 H         -0.2936911528       -0.4949599131        1.4153896304
 H         -2.6078298938       -1.2376866985        1.8952498528
 H         -2.4933957534       -1.7611299735        0.2014881472
 H         -1.9806072388        1.0955489690        1.1745571459
 H         -3.5485577636        0.5043260401        0.6149135418
 H         -2.6617541025        1.6636080754       -1.2148505320
 H         -2.4311781632       -0.0484378541       -1.6232643905
 H         -0.2533549236        0.2303001295       -1.3186536803
 O          0.7824490780       -1.2089438503       -1.1630828630
 C          2.1365711275       -0.9776454490       -0.8483509244
 C          2.4608602156        0.4832948795       -0.4961995001
 C          2.0959876649        0.9181028283        0.9244660753
 O          0.7127112990        0.9941053329        1.1811257548
 H          0.2804258916       -1.4016623737       -0.3398885273
 H          2.6984870244       -1.2432328543       -1.7498369020
 H          2.4606589916       -1.6368010984       -0.0352546775
 H          1.9554346368        1.1362288253       -1.2121333012
 H          3.5367442732        0.6217501735       -0.6140320492
 H          2.5489641246        1.9033862264        1.1101437231
 H          2.5039462789        0.2133761793        1.6560507811
 H          0.2626996473        1.3286402471        0.3767033558
  26
        -37.25810469
 O         -1.0924674607        1.3928963716       -0.4139914485
 C         -2.1439270276        1.1567863064        0.5042540967
 C         -2.9967323967       -0.0397272336        0.0897493481
 C         -2.1767017989       -1.3349774677        0.1031087878
 O         -1.1192544518       -1.2596902379       -0.8397404306
 H         -0.9519554178        0.5322000682       -0.8625122270
 H         -2.7502909456        2.0671648764        0.5439113868
 H         -1.7207439443        0.9806099331        1.5045533138
 H         -3.3779368898        0.1266427601       -0.9197221282
 H         -3.8411631824       -0.1423565208        0.7710029310
 H         -2.8237914897       -2.1807216862       -0.1631091715
 H         -1.7804311851       -1.5089510290        1.1084175119
 H         -0.2784613559       -1.4852043734       -0.3894606268
 O          1.1872454855       -1.3922108399        0.6091008918
 C          2.3181579207       -1.2223833557       -0.2200433341
 C          2.3041955467        0.1285918638       -0.9388092345
 C          2.3664485444        1.2886667405        0.0628872675
 O          1.2828848333        1.2878223224        0.9650500701
 H          1.1062464456       -0.5541339209        1.1095688677
 H          2.3022186185       -2.0438024196       -0.9413267838
 H          3.2319919339       -1.3074679978        0.3843218793
 H          1.3931829067        0.2119560313       -1.5360052962
 H          3.1623769607        0.1887425605       -1.6078509280
 H          2.4133347259        2.2414205853       -0.4792064563
 H          3.2667491336        1.1982576589        0.6787904707
 H          0.4620929066        1.4927946412        0.4653711124
  26
        -37.25591211
 O         -1.1777142896       -2.1603769079       -0.2512653275
 C         -1.8698904725       -0.9755253252       -0.6059421896
 C         -2.1379990033       -0.0608114999        0.5892996635
 C         -2.3639585122        1.3814620517        0.1204515905
 O         -1.2884914487        1.8758873163       -0.6250230005
 H         -1.7092446146       -2.6524619517        0.3843123289
 H         -2.8075629443       -1.2236562406       -1.1179083444
 H         -1.2207054823       -0.4569114427       -1.3153701183
 H         -1.2687056535       -0.0806803662        1.2514629336
 H         -3.0079933540       -0.4026539844        1.1536684843
 H         -2.5591890920        2.0165218851        0.9971198441
 H         -3.2355280015        1.4277107421       -0.5394770217
 H         -0.4789703566        1.8094367446       -0.0806234569
 O          1.2771904716       -1.3840915724        0.8862845260
 C          2.3038212647       -1.2160002795       -0.0684909130
 C          2.1010063854        0.0269724265       -0.9434210023
 C          2.1272757322        1.3059700237       -0.1038019510
 O          1.0701175795        1.3470452287        0.8294827703
 H          0.4651062522       -1.6694967094        0.4240122699
 H          2.3846776039       -2.1073340348       -0.7026638272
 H          3.2304335582       -1.1163298752        0.5055604771
 H          1.1406046606       -0.0426121642       -1.4587615499
 H          2.8925641985        0.0699445282       -1.6913247564
 H          2.0139035482        2.1865762180       -0.7412777804
 H          3.0896427850        1.3775636971        0.4237615034
 H          1.0486076456        0.4620519002        1.2403483539
  26
        -37.25494336
 O         -1.5154336599       -1.3492114111       -0.9751100606
 C         -2.2319930289       -1.3357944209        0.2374989477
 C         -1.8734740538       -0.1390977819        1.1274511697
 C         -2.1667858961        1.1874426081        0.4222949067
 O         -1.3894204142        1.3588692617       -0.7415458589
 H         -0.5698396176       -1.5226819515       -0.7907514148
 H         -2.0694336319       -2.2684568758        0.7935618815
 H         -3.2888088532       -1.2828719228       -0.0418335936
 H         -0.8123222933       -0.1859683873        1.3815244502
 H         -2.4505954741       -0.1923422437        2.0507740426
 H         -1.9345036706        2.0316485106        1.0784213013
 H         -3.2345512478        1.2341001221        0.1657973260
 H         -1.4714441906        0.5236134747       -1.2432957162
 O          1.2520231057       -1.3527838315       -0.5428146607
 C          1.9574932350       -1.1651305065        0.6668720219
 C          2.7848755314        0.1182608206        0.6652692434
 C          1.9020990274        1.3514004798        0.4457882084
 O          1.3636792656        1.3205066100       -0.8638833921
 H          1.2793199243       -0.4907198476       -1.0064720581
 H          2.6070912704       -2.0357713969        0.8117516284
 H          1.2410498629       -1.1395384761        1.5034335632
 H          3.5173387164        0.0715900416       -0.1425175489
 H          3.3131319524        0.2114424406        1.6142231484
 H          2.5049195884        2.2618147398        0.5660008963
 H          1.1038779754        1.3728081458        1.1962987367
 H          0.4191318382        1.5668392120       -0.8424840083
  26
        -37.25450344
 O         -0.7665463054       -0.7959380378       -0.0396583615
 C         -2.0304791647       -0.8473478134        0.5870858634
 C         -2.6862531499        0.5313182720        0.6911568885
 C         -3.0005334728        1.1129434352       -0.6909972548
 O         -1.8444154886        1.3634943485       -1.4488363513
 H         -0.2058048933       -0.1783299483        0.4807880485
 H         -1.9326814937       -1.2870843096        1.5891366844
 H         -2.6435972539       -1.5156234566       -0.0249824748
 H         -2.0086541631        1.2075726851        1.2185932487
 H         -3.6096310558        0.4456594280        1.2642442908
 H         -3.5136224545        2.0730306062       -0.5893737191
 H         -3.6665826910        0.4206557974       -1.2309121266
 H         -1.2956408152        0.5660495023       -1.3844993757
 O          1.9368892599       -1.8844270370        0.3957620750
 C          2.7736109925       -1.1708040324       -0.4892730713
 C          2.2338018452        0.2204007987       -0.8346477961
 C          2.0802950122        1.1028751572        0.4081321957
 O          1.1925177873        0.5539597150        1.3606219422
 H          1.0467651964       -1.9298420902        0.0122004522
 H          2.9234804003       -1.7429697793       -1.4150559191
 H          3.7371228205       -1.0888078675        0.0223333791
 H          1.2649598355        0.1160406647       -1.3273819911
 H          2.9198251717        0.7057120740       -1.5286002245
 H          1.6624108013        2.0733074691        0.1298285293
 H          3.0638297359        1.2643380147        0.8696196642
 H          1.5303750849       -0.3329577414        1.5767899144
  26
        -37.25446845
 O         -1.9378567898       -1.9460973323       -0.3942662610
 C         -2.7423242644       -1.2039891668        0.4982427291
 C         -2.1550118315        0.1701586406        0.8328004198
 C         -1.9953987205        1.0470799631       -0.4129534482
 O         -1.1513959434        0.4659629625       -1.3863918479
 H         -1.0494580468       -2.0299028343       -0.0166133369
 H         -2.9003608792       -1.7689162993        1.4269456250
 H         -3.7079431851       -1.0933349620       -0.0038028484
 H         -1.1822228704        0.0377455610        1.3103939130
 H         -2.8140940592        0.6771713963        1.5371701584
 H         -1.5337245194        1.9996847109       -0.1426123120
 H         -2.9819086091        1.2472052688       -0.8523863114
 H         -1.5207976292       -0.4112802192       -1.5894468177
 O          0.8529613993       -0.8615703525       -0.0306956141
 C          2.1331459716       -0.7498424236       -0.6146478295
 C          2.6295127154        0.6974061535       -0.6577135723
 C          2.8390962869        1.2646227812        0.7499145421
 O          1.6445549243        1.3396543935        1.4860197344
 H          0.2480540469       -0.2822703124       -0.5460375375
 H          2.1170240635       -1.1650914050       -1.6317394895
 H          2.7999481442       -1.3639303007       -0.0018687263
 H          1.8921097579        1.3083873838       -1.1845786377
 H          3.5711137966        0.7372122124       -1.2055753322
 H          3.2289832269        2.2845300824        0.6931676840
 H          3.5753949396        0.6424505910        1.2838778310
 H          1.2018111809        0.4835367230        1.3726372973
  26
        -37.25424034
 O         -0.9890128367       -1.0534673505       -0.0867944192
 C         -2.2683541283       -0.8611041476        0.4753123282
 C         -2.6036686543        0.6191150325        0.6760665438
 C         -2.6993559797        1.3643859568       -0.6587100582
 O         -1.4788825244        1.3819810921       -1.3558376570
 H         -0.3540772264       -0.5623636020        0.4808895838
 H         -2.3355313261       -1.3857298676        1.4390785974
 H         -2.9776363142       -1.3237017521       -0.2179500521
 H         -1.8215794339        1.0766133643        1.2872500437
 H         -3.5539199247        0.7033500081        1.2038229755
 H         -2.9720435090        2.4098682007       -0.4903531810
 H         -3.4825995695        0.8985994468       -1.2780268774
 H         -1.1442786472        0.4707979698       -1.3350623963
 O          2.3271093208       -1.8522695661        0.4498384081
 C          2.9670246739       -0.9366432740       -0.4176162158
 C          2.0491746672        0.2126123676       -0.8405549343
 C          1.6142300455        1.0673256749        0.3533668353
 O          0.9286089774        0.3189801736        1.3388484565
 H          1.5450519750       -2.2035096028        0.0041300104
 H          3.3420406510       -1.4575402602       -1.3084415244
 H          3.8246202678       -0.5560218628        0.1439819112
 H          1.1659344980       -0.1998640623       -1.3329497279
 H          2.5726916500        0.8472718198       -1.5547121430
 H          0.9192786921        1.8423662796        0.0215933599
 H          2.4936204694        1.5476997632        0.8031621407
 H          1.4856890333       -0.4496697357        1.5516749078
  26
        -37.25420883
 O         -0.8582190638       -0.4924571921       -1.2454578979
 C         -1.3135018371        0.8212538902       -0.9812387741
 C         -1.9475526398        0.9517137304        0.4059491634
 C         -3.1696596505        0.0433459176        0.5593009533
 O         -2.8405139047       -1.3295940441        0.4620587946
 H         -1.5950219592       -1.0941617298       -1.0424821887
 H         -2.0400135773        1.1198252108       -1.7489645490
 H         -0.4371439638        1.4700616084       -1.0515389671
 H         -2.2470635394        1.9874916725        0.5608409808
 H         -1.2080975345        0.6910951020        1.1668752541
 H         -3.8853734233        0.2264474120       -0.2467592328
 H         -3.6679283879        0.2467242660        1.5161544833
 H         -2.2219232737       -1.5481611081        1.1703633591
 O          0.9074024852       -0.9672190802        0.8213835341
 C          2.1778902529       -1.2919582613        0.3026212429
 C          2.6694521759       -0.2721518898       -0.7283730939
 C          2.8901940433        1.1065064063       -0.0986719383
 O          1.7020415234        1.6680510581        0.4008038962
 H          0.3052025051       -0.8605172919        0.0525739731
 H          2.1516408949       -2.2911085608       -0.1552303378
 H          2.8564622062       -1.3248939048        1.1606300388
 H          1.9240882188       -0.1893795024       -1.5232295470
 H          3.6058069085       -0.6233911411       -1.1624853242
 H          3.2716363927        1.8082174550       -0.8457584353
 H          3.6364576276        1.0210349618        0.7073667884
 H          1.2694241002        0.9673948578        0.9163375620
