%nprocshared=4
%mem=8000mb
%chk=9.chk
%nprocshared=4
%mem=8000mb
#T wB97XD/def2svpp opt=tight freq int(grid=ultrafine) scf=(verytight,qc) Volume=tight

Dimer

0 1
 O         -1.0645281711       -1.3395902397       -0.8035039513
 C         -2.2330809588       -1.2994798672       -0.0117326457
 C         -2.2828713669       -0.0506287829        0.8714725514
 C         -2.3073172878        1.2272834205        0.0234051663
 O         -1.1715058005        1.3544960772       -0.8025237766
 H         -0.9856376777       -0.4425972683       -1.1889169713
 H         -2.2267263064       -2.2051874124        0.6003262261
 H         -3.1184402900       -1.3248288727       -0.6625152823
 H         -1.4081172347       -0.0350208736        1.5254660255
 H         -3.1780489671       -0.0843795321        1.4921701802
 H         -2.4032855141        2.1019821435        0.6788753009
 H         -3.1675433686        1.2077223403       -0.6531771157
 H         -0.3845382153        1.4849331478       -0.2274593891
 O          1.1716294823       -1.3544022122        0.8033158463
 C          2.3076726082       -1.2271044218       -0.0223089819
 C          2.2824297739        0.0499235474       -0.8716726428
 C          2.2325574018        1.2997323408        0.0101830550
 O          1.0649000760        1.3397241677        0.8032862509
 H          0.3848431096       -1.4852111918        0.2281083289
 H          2.4046760087       -2.1024372645       -0.6767896466
 H          3.1675952234       -1.2061134197        0.6546159046
 H          1.4074482848        0.0332134447       -1.5253305956
 H          3.1773335834        0.0834064717       -1.4927597986
 H          2.2246930845        2.2047516085       -0.6029012292
 H          3.1186336322        1.3266096153        0.6599347986
 H          0.9865149606        0.4428034753        1.1890233686


