  29
        -29.48131002
 C         -2.0487677840       -1.2002180788       -0.9643582225
 C         -1.5324648093        0.2259942309       -0.7978828629
 C         -0.4274561161        0.5133503468        0.2485797617
 C         -0.2129518591        2.0371505943        0.1911657578
 C         -0.9747038966        0.1950401688        1.6458678355
 C          0.9251449287       -0.2339582688       -0.0162717149
 C          0.9074299723       -1.6804651260        0.5001136416
 C          1.2676977129       -0.2621929479       -1.5116803952
 C          2.0950790334        0.4616335132        0.6999048896
 H         -2.3509671083       -1.6296228398       -0.0129781916
 H         -1.3135109573       -1.8523641849       -1.4270692740
 H         -2.9238818926       -1.1832070712       -1.6126548098
 H         -2.3901284522        0.8416515340       -0.5121233892
 H         -1.1977908820        0.5883057059       -1.7709394388
 H         -1.1727933338        2.5466348019        0.2515843283
 H          0.2626280657        2.3374425528       -0.7389040848
 H          0.3944694665        2.3838634290        1.0213562615
 H         -0.2362904580        0.4140123451        2.4129111867
 H         -1.2663816603       -0.8456500445        1.7405914296
 H         -1.8513421544        0.8096140430        1.8418876125
 H          1.8029680389       -2.1948057955        0.1552301077
 H          0.0473150819       -2.2350418562        0.1450999794
 H          0.9102621453       -1.7045674373        1.5864095704
 H          1.2324795732        0.7342576219       -1.9447879312
 H          0.5917097405       -0.9055284982       -2.0662785829
 H          2.2773286734       -0.6464113266       -1.6453793459
 H          1.8800241086        0.6224491188        1.7530476226
 H          2.3355895453        1.4163436259        0.2416389911
 H          2.9801437252       -0.1687050903        0.6357144285
