  29
        -29.48415824
 C         -2.8362471446       -0.5658625282        0.0080892107
 C         -1.3612732867       -0.8466234166       -0.2705104403
 C         -0.3918286885        0.3286392091       -0.0077612010
 C         -0.5882785047        1.3771058646       -1.1115283841
 C         -0.7415855804        0.9923614127        1.3309895265
 C          1.0899964989       -0.1894312296        0.0051005565
 C          1.3691810832       -1.1463561709       -1.1631061154
 C          2.0913448757        0.9691820155       -0.1119581917
 C          1.4100178185       -0.9403769260        1.3055944628
 H         -3.0171620468       -0.3958609403        1.0656764409
 H         -3.4280271344       -1.4267153278       -0.2980293416
 H         -3.1942681617        0.2969355040       -0.5476745786
 H         -1.2686203912       -1.1435030637       -1.3161536802
 H         -1.0698612725       -1.7000989459        0.3434998251
 H         -1.6433172666        1.6190870043       -1.2110609192
 H         -0.2386670172        1.0137937580       -2.0743349681
 H         -0.0620795319        2.2971715511       -0.8744283973
 H         -1.6745896031        1.5423974626        1.2397152939
 H          0.0268737359        1.7004353369        1.6292194823
 H         -0.8555875305        0.2545496375        2.1201202039
 H          1.0671157958       -0.7159875237       -2.1141092652
 H          0.8568052146       -2.0951436208       -1.0327747312
 H          2.4370946639       -1.3497827681       -1.2156590717
 H          1.8930128261        1.7497642242        0.6174858992
 H          2.0723543162        1.4084215284       -1.1051436562
 H          3.0978227764        0.5961833239        0.0680374920
 H          0.6754264089       -1.7129473569        1.5165143913
 H          1.4514646414       -0.2617836467        2.1526154589
 H          2.3817207828       -1.4223509898        1.2163163534
  29
        -29.48230861
 C         -2.8571581590       -0.5355983498       -0.0211864209
 C         -1.3686036843       -0.8763139661       -0.0576009065
 C         -0.3936784413        0.3228147011       -0.0011232470
 C         -0.6562942355        1.2243528008       -1.2158258769
 C         -0.6960699472        1.1456408958        1.2592292129
 C          1.0947310403       -0.1882141555        0.0063738883
 C          1.4300037413       -0.9915735646       -1.2589688900
 C          2.1023554854        0.9705339285        0.0742505543
 C          1.3850482168       -1.0940456060        1.2125303631
 H         -3.1464580574        0.0966030143       -0.8558441381
 H         -3.1326885084       -0.0404110965        0.9055807749
 H         -3.4327793171       -1.4572084786       -0.0885941187
 H         -1.1851836843       -1.4372443038       -0.9745318288
 H         -1.1680540677       -1.5372450602        0.7857399141
 H         -1.6556353216        1.6467019509       -1.1541515220
 H         -0.5853679737        0.6682440547       -2.1463446584
 H          0.0407290085        2.0559007250       -1.2504259287
 H         -0.6842075497        0.5251697733        2.1511451236
 H         -1.6810006362        1.5976433332        1.1782508628
 H          0.0177823886        1.9536021021        1.3850484021
 H          0.8165963748       -1.8835484179       -1.3451649741
 H          2.4692607157       -1.3119346633       -1.2163552447
 H          1.3060682892       -0.3920253582       -2.1558420296
 H          2.0041823278        1.5374231863        0.9952064766
 H          1.9984916344        1.6482385366       -0.7675931757
 H          3.1127351639        0.5671610399        0.0457691649
 H          2.4381210712       -1.3688393622        1.2099086547
 H          0.8084896001       -2.0136994426        1.1752566387
 H          1.1782638427       -0.5875544263        2.1506044772
  29
        -29.48140860
 C         -2.2751483737       -1.0078231549       -0.9723631652
 C         -1.5628025453       -0.6034893226        0.3175594079
 C         -0.4265665292        0.4489660160        0.2213131570
 C         -0.7424396774        1.4539336485       -0.8936634120
 C         -0.4549668067        1.2343113321        1.5445557779
 C          0.9834642125       -0.2053810946        0.0142202011
 C          0.9767672761       -1.2510937888       -1.1075856930
 C          2.0405337313        0.8440676152       -0.3611660240
 C          1.4689137332       -0.9042288527        1.2929236658
 H         -3.0081580604       -1.7795493322       -0.7416872326
 H         -1.5942984341       -1.4057175530       -1.7165150464
 H         -2.8072302838       -0.1674053953       -1.4091029900
 H         -1.1774750527       -1.5036978023        0.7978301628
 H         -2.3289029639       -0.1987999363        0.9839571706
 H         -0.6304290610        1.0153342053       -1.8805332641
 H         -0.0914415448        2.3207816225       -0.8237395238
 H         -1.7671952067        1.8041138473       -0.7899003284
 H         -1.3645619447        1.8300406499        1.5940226954
 H          0.3887008279        1.9141146903        1.6259873732
 H         -0.4458156109        0.5662025297        2.4011780395
 H          0.3758490528       -2.1154515895       -0.8414750629
 H          1.9940123743       -1.5964234841       -1.2849469044
 H          0.6052115780       -0.8317937616       -2.0385467907
 H          2.0529137337        1.6753983152        0.3382531137
 H          1.8729154861        1.2330031908       -1.3614393791
 H          3.0265294969        0.3834083655       -0.3444113406
 H          2.3612583630       -1.4867088303        1.0717425699
 H          0.7200741502       -1.5840092168        1.6909037328
 H          1.7256276263       -0.1832191886        2.0635349030
  29
        -29.48131002
 C         -2.0487677840       -1.2002180788       -0.9643582225
 C         -1.5324648093        0.2259942309       -0.7978828629
 C         -0.4274561161        0.5133503468        0.2485797617
 C         -0.2129518591        2.0371505943        0.1911657578
 C         -0.9747038966        0.1950401688        1.6458678355
 C          0.9251449287       -0.2339582688       -0.0162717149
 C          0.9074299723       -1.6804651260        0.5001136416
 C          1.2676977129       -0.2621929479       -1.5116803952
 C          2.0950790334        0.4616335132        0.6999048896
 H         -2.3509671083       -1.6296228398       -0.0129781916
 H         -1.3135109573       -1.8523641849       -1.4270692740
 H         -2.9238818926       -1.1832070712       -1.6126548098
 H         -2.3901284522        0.8416515340       -0.5121233892
 H         -1.1977908820        0.5883057059       -1.7709394388
 H         -1.1727933338        2.5466348019        0.2515843283
 H          0.2626280657        2.3374425528       -0.7389040848
 H          0.3944694665        2.3838634290        1.0213562615
 H         -0.2362904580        0.4140123451        2.4129111867
 H         -1.2663816603       -0.8456500445        1.7405914296
 H         -1.8513421544        0.8096140430        1.8418876125
 H          1.8029680389       -2.1948057955        0.1552301077
 H          0.0473150819       -2.2350418562        0.1450999794
 H          0.9102621453       -1.7045674373        1.5864095704
 H          1.2324795732        0.7342576219       -1.9447879312
 H          0.5917097405       -0.9055284982       -2.0662785829
 H          2.2773286734       -0.6464113266       -1.6453793459
 H          1.8800241086        0.6224491188        1.7530476226
 H          2.3355895453        1.4163436259        0.2416389911
 H          2.9801437252       -0.1687050903        0.6357144285
  29
        -29.47884400
 C         -2.1253678895       -0.1576955158       -1.6120428565
 C         -1.5878011830       -0.6059632736       -0.2538502252
 C         -0.4644376146        0.2376250658        0.4069760144
 C         -0.7151625232        1.7228350495        0.1131154553
 C         -0.6384696826        0.0636156754        1.9270893122
 C          0.9822657431       -0.2024688810       -0.0215096337
 C          1.2021418479       -1.7154406143        0.1363661443
 C          1.2940695027        0.1402774753       -1.4841065950
 C          2.0525724805        0.4916946429        0.8375304861
 H         -2.8744405011       -0.8744192322       -1.9458550252
 H         -1.3536019594       -0.1060628613       -2.3729094200
 H         -2.6048516455        0.8149563066       -1.5454675906
 H         -1.2639695032       -1.6422506290       -0.3322277731
 H         -2.4406916007       -0.6007573295        0.4298871552
 H         -1.7226923382        1.9859432128        0.4293266736
 H         -0.6215781449        1.9525503351       -0.9425856238
 H         -0.0238136999        2.3530406099        0.6658771995
 H          0.0670336842        0.6747119288        2.4811387764
 H         -0.5163147113       -0.9728793906        2.2292834440
 H         -1.6390761681        0.3774462948        2.2184772323
 H          0.6698473590       -2.2808232798       -0.6240035687
 H          0.8938085715       -2.0705380246        1.1152817441
 H          2.2617698670       -1.9360766479        0.0223193697
 H          0.6077480178       -0.3547635241       -2.1628269168
 H          2.2982174672       -0.2039789273       -1.7265329050
 H          1.2603351014        1.2108182397       -1.6623037945
 H          2.0504815183        0.1155234385        1.8564224601
 H          1.9175945163        1.5689810005        0.8593506084
 H          3.0364502524        0.2927011426        0.4166519816
