  17
        -32.99444520
 Cl        -0.0399665857        0.4801196847       -2.7000507363
 C          0.9078528154        0.2168540575       -1.2168629041
 C         -0.0000739921       -0.0000465625        0.0003245990
 C         -0.9083206522        1.2168990883        0.2171617752
 Cl         0.0393072109        2.7001260228        0.4810935080
 C         -0.9082163600       -1.2171275728       -0.2161820935
 Cl         0.0395437555       -2.6999006297       -0.4822333072
 C          0.9084970788       -0.2167778092        1.2170674345
 Cl        -0.0387863452       -0.4802655581        2.7005867547
 H          1.5299198612        1.1002643014       -1.0777533629
 H          1.5308511411       -0.6597063241       -1.3907535441
 H         -1.5307502383        1.0774698255        1.1002614955
 H         -1.5309421987        1.3908662598       -0.6596525406
 H         -1.5317364570       -1.0773909272       -1.0984616497
 H         -1.5297443265       -1.3917853523        0.6612746796
 H          1.5313870686        0.6599190350        1.3906949285
 H          1.5306783521       -1.1000648761        1.0776477666
