  17
        -32.99191903
 Cl         0.7306396138        0.7951327552       -2.1757275773
 C          1.1181609427       -0.1422766922       -0.7122852274
 C         -0.0195202119       -0.1339762107        0.3163362872
 C         -0.3589651134        1.2911931799        0.7906416773
 Cl        -1.4639420840        2.1713984356       -0.2931840566
 C         -1.2758399108       -0.7954624975       -0.2646707517
 Cl        -1.0229684589       -2.5253015028       -0.5952875845
 C          0.4421252216       -0.9410210970        1.5413125646
 Cl         1.7938197428       -0.1471131358        2.3831765322
 H          2.0208535110        0.2920818666       -0.2834820090
 H          1.3171838542       -1.1638810401       -1.0370209352
 H          0.5475042063        1.8897503454        0.8708753978
 H         -0.8556064978        1.2541899364        1.7603275656
 H         -1.5409738353       -0.3289653087       -1.2126620564
 H         -2.1108148914       -0.7202386391        0.4315298788
 H          0.7898573188       -1.9296650044        1.2445621993
 H         -0.3681374127       -1.0403277582        2.2638677881
