  17
        -32.99636225
 Cl         1.9136925056        0.0051397613       -1.9752295286
 C          0.8754554851        0.9222276107       -0.8585847836
 C         -0.0000126780        0.0000419548       -0.0000169592
 C         -0.8756187180        0.8584793922        0.9221368374
 Cl        -1.9137665322        1.9753228468        0.0051446997
 C         -0.8755588719       -0.8585008639       -0.9221192371
 Cl        -1.9135922573       -1.9754422507       -0.0051048066
 C          0.8755443680       -0.9221042920        0.8584913109
 Cl         1.9137473549       -0.0050760886        1.9752306037
 H          0.2586519247        1.5829071491       -1.4663712365
 H          1.5366197989        1.5100739333       -0.2218018752
 H         -0.2588913474        1.4661236303        1.5830047498
 H         -1.5368836990        0.2216279389        1.5097886540
 H         -0.2587806282       -1.4660541367       -1.5830241387
 H         -1.5369081443       -0.2217011728       -1.5097251299
 H          1.5367828854       -1.5097653786        0.2216276143
 H          0.2588266755       -1.5829652740        1.4661665614
