  17
        -32.99636225
 Cl         1.9136925056        0.0051397613       -1.9752295286
 C          0.8754554851        0.9222276107       -0.8585847836
 C         -0.0000126780        0.0000419548       -0.0000169592
 C         -0.8756187180        0.8584793922        0.9221368374
 Cl        -1.9137665322        1.9753228468        0.0051446997
 C         -0.8755588719       -0.8585008639       -0.9221192371
 Cl        -1.9135922573       -1.9754422507       -0.0051048066
 C          0.8755443680       -0.9221042920        0.8584913109
 Cl         1.9137473549       -0.0050760886        1.9752306037
 H          0.2586519247        1.5829071491       -1.4663712365
 H          1.5366197989        1.5100739333       -0.2218018752
 H         -0.2588913474        1.4661236303        1.5830047498
 H         -1.5368836990        0.2216279389        1.5097886540
 H         -0.2587806282       -1.4660541367       -1.5830241387
 H         -1.5369081443       -0.2217011728       -1.5097251299
 H          1.5367828854       -1.5097653786        0.2216276143
 H          0.2588266755       -1.5829652740        1.4661665614
  17
        -32.99444520
 Cl        -0.0399665857        0.4801196847       -2.7000507363
 C          0.9078528154        0.2168540575       -1.2168629041
 C         -0.0000739921       -0.0000465625        0.0003245990
 C         -0.9083206522        1.2168990883        0.2171617752
 Cl         0.0393072109        2.7001260228        0.4810935080
 C         -0.9082163600       -1.2171275728       -0.2161820935
 Cl         0.0395437555       -2.6999006297       -0.4822333072
 C          0.9084970788       -0.2167778092        1.2170674345
 Cl        -0.0387863452       -0.4802655581        2.7005867547
 H          1.5299198612        1.1002643014       -1.0777533629
 H          1.5308511411       -0.6597063241       -1.3907535441
 H         -1.5307502383        1.0774698255        1.1002614955
 H         -1.5309421987        1.3908662598       -0.6596525406
 H         -1.5317364570       -1.0773909272       -1.0984616497
 H         -1.5297443265       -1.3917853523        0.6612746796
 H          1.5313870686        0.6599190350        1.3906949285
 H          1.5306783521       -1.1000648761        1.0776477666
  17
        -32.99191903
 Cl         0.7306396138        0.7951327552       -2.1757275773
 C          1.1181609427       -0.1422766922       -0.7122852274
 C         -0.0195202119       -0.1339762107        0.3163362872
 C         -0.3589651134        1.2911931799        0.7906416773
 Cl        -1.4639420840        2.1713984356       -0.2931840566
 C         -1.2758399108       -0.7954624975       -0.2646707517
 Cl        -1.0229684589       -2.5253015028       -0.5952875845
 C          0.4421252216       -0.9410210970        1.5413125646
 Cl         1.7938197428       -0.1471131358        2.3831765322
 H          2.0208535110        0.2920818666       -0.2834820090
 H          1.3171838542       -1.1638810401       -1.0370209352
 H          0.5475042063        1.8897503454        0.8708753978
 H         -0.8556064978        1.2541899364        1.7603275656
 H         -1.5409738353       -0.3289653087       -1.2126620564
 H         -2.1108148914       -0.7202386391        0.4315298788
 H          0.7898573188       -1.9296650044        1.2445621993
 H         -0.3681374127       -1.0403277582        2.2638677881
  17
        -32.99054857
 Cl         1.8681773656       -0.6622135854       -2.1710510795
 C          0.6465953967        0.5430043839       -1.6992381062
 C          0.1639191658        0.3483908250       -0.2504118309
 C         -0.9050291816        1.4267734533       -0.0173762255
 Cl        -1.6047626235        1.3724575218        1.6195473907
 C         -0.4303588719       -1.0511100024       -0.0647929084
 Cl        -1.7398845313       -1.3661067288       -1.2264051274
 C          1.3780140943        0.5294592768        0.6754300127
 Cl         1.1293854505       -0.0737535112        2.3321268093
 H         -0.1860115372        0.4298312295       -2.3927049580
 H          1.1055224316        1.5234906181       -1.8241634505
 H         -1.7326462862        1.2853663420       -0.7123927238
 H         -0.4804537378        2.4222877412       -0.1466306733
 H         -0.8588678376       -1.1524261749        0.9311171655
 H          0.3318729639       -1.8132245869       -0.2237511693
 H          1.6345444533        1.5856734068        0.7594345805
 H          2.2280172059       -0.0255070861        0.2783029250
