%chk=1.chk
%nprocshared=4
%mem=8000mb
#T wB97XD/def2svpp opt=(tight,calcall,MaxStep=15) freq int(grid=ultrafine) scf=(verytight,qc) Volume=tight

Monomer

0 1
Cl       -1.983690   -0.000000    1.969541
C       -0.891523   -0.904950    0.868415
C        0.000000    0.000000    0.000000
C        0.904950   -0.891523   -0.868415
Cl        0.000000   -1.983690   -1.969541
C       -0.904950    0.891523   -0.868415
Cl       -0.000000    1.983690   -1.969541
C        0.891523    0.904950    0.868415
Cl        1.983690    0.000000    1.969541
H       -1.527169   -1.539311    0.235803
H       -0.265644   -1.546441    1.505012
H        1.539311   -1.527169   -0.235803
H        1.546441   -0.265644   -1.505012
H       -1.539311    1.527169   -0.235803
H       -1.546441    0.265644   -1.505012
H        0.265644    1.546441    1.505012
H        1.527169    1.539311    0.235803

