%nprocshared=4
%mem=8000mb
#T wB97XD/def2svpp opt(tight,calcall) int(grid=ultrafine) scf=(verytight,qc)

dimer

0 1
 F         -1.1950463780        0.2574859654        1.7542554143
 C         -1.9228514828       -0.6796626093        1.0616919552
 C         -2.7961125998        0.0000308988       -0.0007146197
 C         -1.9227985033        0.6770675374       -1.0647233628
 F         -1.1979401864       -0.2622804651       -1.7575703579
 C         -3.6780919649       -1.0604639481       -0.6736539025
 F         -4.4123747729       -1.7361231212        0.2671632114
 C         -3.6734322488        1.0633572160        0.6738343253
 F         -4.4076087509        1.7410369771       -0.2656387666
 H         -2.5380073029       -1.2092414839        1.7941370111
 H         -1.2060933916       -1.3648702324        0.6012698518
 H         -1.2039270868        1.3609072187       -0.6056043875
 H         -2.5377075249        1.2074618112       -1.7967706576
 H         -3.0696736427       -1.8016698036       -1.1994818509
 H         -4.3886896056       -0.5913670203       -1.3608113924
 H         -3.0616128835        1.8028139612        1.1981639770
 H         -4.3840188948        0.5966258196        1.3625991817
 F          4.4192074580        0.2720367154        1.7295789609
 C          3.6827114978       -0.6706150922        1.0588457447
 C          2.7959094282       -0.0003309838        0.0007017711
 C          3.6683884526        0.6733890691       -1.0671190483
 F          4.4010515048       -0.2664784942       -1.7459171507
 C          1.9211134817       -1.0663324973       -0.6712766954
 F          1.2002761340       -1.7582493966        0.2717918431
 C          1.9242416357        1.0622583003        0.6821391038
 F          1.1931486583        1.7535897963       -0.2534164959
 H          3.0776878285       -1.1953059474        1.8036155936
 H          4.3918146351       -1.3582447654        0.5881994608
 H          4.3799614284        1.3637953863       -0.6043446755
 H          3.0531841640        1.1956795280       -1.8052068737
 H          2.5347699860       -1.7987186417       -1.2026733522
 H          1.1994436998       -0.6090653687       -1.3534209219
 H          2.5406278508        1.7955457563        1.2091116305
 H          1.2097794405        0.6019824830        1.3698419190



