%nprocshared=4
%mem=8000mb
#T wB97XD/def2svpp opt=tight freq int(grid=ultrafine) scf=(verytight,qc)

dimer

0 1
 O          1.1279336387        1.4232900286       -2.0621224751
 C          1.8250943951        0.3153573509       -1.5825586691
 C          2.3440249031        0.5007701016       -0.1394981472
 Br         3.7043175965       -0.8241369094        0.2408236250
 C          2.9370828200        1.9161732889        0.0990706812
 O          1.9711060248        2.9050399481        0.0546129797
 N          1.2786178430        0.3240307881        0.8623845180
 O          1.5750185765       -0.0533945156        1.9609107615
 O          0.1578671104        0.6220489024        0.5060454569
 H          0.1760060555        1.3319462377       -1.8846047295
 H          2.7058826799        0.1939379593       -2.2231647830
 H          1.2314048002       -0.6048707219       -1.6341374903
 H          3.7273907920        2.0655243439       -0.6508854423
 H          3.3856150331        1.9505538257        1.0976160896
 H          1.5749166569        2.9131657424       -0.8342576827
 O         -3.6819319166        0.6257399350        2.1981913418
 C         -2.6850771028       -0.1985913392        1.6717038706
 C         -2.6801502450       -0.2286045813        0.1329227871
 Br        -1.4979529377       -1.6102223353       -0.4975429115
 C         -4.0867262397       -0.4780101751       -0.4693585804
 O         -4.9696296062        0.5572384473       -0.2159259140
 N         -2.1935495943        1.0514146324       -0.4199881480
 O         -2.4592953332        2.0406462368        0.2106344285
 O         -1.6263763861        1.0249754195       -1.4833185750
 H         -3.4338131003        1.5502525448        2.0395599042
 H         -2.8961607334       -1.2101637839        2.0326831657
 H         -1.6873168433        0.0945821704        2.0206069292
 H         -4.4446048173       -1.4402615380       -0.0727650759
 H         -3.9994643117       -0.5595322081       -1.5585139904
 H         -5.0978512035        0.6406446201        0.7435844766

