%chk=12.chk
%nprocshared=4
%mem=8000mb
#T wB97XD/def2svpp opt=tight freq int(grid=ultrafine) scf=(verytight,qc) Volume=tight

Monomer

0 1
O       -1.761426   -0.135516    1.583702 
C       -0.950871    0.786901    0.893771 
C        0.021651    0.015120   -0.002406 
C        0.925843   -0.878869    0.870702 
O        1.823095   -1.662460    0.117674 
C       -0.756486   -0.860604   -0.982136 
F       -1.589745   -0.097814   -1.770448 
C        0.880821    0.997052   -0.797765 
F        1.523096    1.874726    0.048696 
H       -2.403427    0.347475    2.117984 
H       -0.369043    1.416512    1.594172 
H       -1.559773    1.459908    0.258529 
H        0.294646   -1.498922    1.532347 
H        1.536086   -0.223454    1.513166 
H        1.416148   -2.512219   -0.089012 
H       -1.377325   -1.583120   -0.425808 
H       -0.063657   -1.400926   -1.651150 
H        0.259097    1.585677   -1.493337 
H        1.647979    0.443063   -1.365140 


