  21
        -24.05712620
 C         -1.6571299410       -1.1978962059        0.0688648992
 C         -0.8240489000       -0.0278607431       -0.4559107040
 O         -1.3932692665        1.2033797382       -0.0457162492
 C          0.6551604126       -0.0348206283        0.0015171272
 C          0.7499213584        0.0930147083        1.5227693444
 C          1.3552655571       -1.3150879895       -0.4588724823
 C          1.3483899176        1.1690673469       -0.6454625949
 H         -2.6729160905       -1.1259211680       -0.3201551963
 H         -1.7049626171       -1.1739342910        1.1540616819
 H         -1.2405244860       -2.1469408198       -0.2522693329
 H         -0.8281756109       -0.0734209685       -1.5602712469
 H         -2.3343324085        1.1840819036       -0.2468228977
 H          0.3743086509       -0.7997046979        2.0164671283
 H          0.1718060379        0.9506458381        1.8550715980
 H          1.7865031474        0.2335765907        1.8196150884
 H          2.4230120863       -1.2347089297       -0.2685180900
 H          1.2097404478       -1.4729605706       -1.5256475998
 H          0.9846551957       -2.1857145615        0.0757100709
 H          0.8394975927        2.0849395035       -0.3602164556
 H          1.3273873558        1.0841588824       -1.7299904120
 H          2.3853701846        1.2272454593       -0.3234660080
