  21
        -24.05677617
 C         -1.8014150220        0.3624037056        0.8879866776
 C         -0.8738747220       -0.3462716622       -0.0945803087
 O         -1.2869442234        0.0659389957       -1.3830720858
 C          0.6384333383       -0.0782188013        0.1420989596
 C          1.0515342024       -0.5871745930        1.5247635328
 C          1.4488810934       -0.8426646641       -0.9156776004
 C          0.9472152465        1.4151899290        0.0174980215
 H         -1.6242577569        0.0294765030        1.9050108152
 H         -2.8285629124        0.1328237560        0.6166572705
 H         -1.6680910555        1.4372280985        0.8220396325
 H         -1.0347891761       -1.4350231988        0.0055856238
 H         -0.7726372209       -0.4123972662       -2.0410065833
 H          2.1271444457       -0.4838617845        1.6506805562
 H          0.7925076928       -1.6376923310        1.6409560183
 H          0.5663163722       -0.0213523377        2.3147548611
 H          1.3162224363       -0.4101580692       -1.9058678990
 H          1.1570079496       -1.8916631767       -0.9453877637
 H          2.5090662883       -0.7941175093       -0.6774358515
 H          0.4849612446        1.8173375200       -0.8812657946
 H          2.0218031917        1.5731737862       -0.0412143942
 H          0.5702618226        1.9639636420        0.8761791493
