  28
        -35.97898345
 C          3.4622278357       -0.9818476779       -0.3405708459
 C          2.0330590686       -0.4615295634       -0.1549144117
 N          1.3268677353       -1.1287871461        0.9380871919
 C          2.0471394710        1.0550656371        0.0988040709
 O          0.8128609388        1.6791333777       -0.1085562438
 H          4.0647501796       -0.7524158049        0.5376503699
 H          3.9268826369       -0.5220595051       -1.2081439775
 H          3.4575447991       -2.0612604136       -0.4855472822
 H          1.4588924493       -0.6494745365       -1.0691887914
 H          1.2938959026       -2.1288838778        0.7647170908
 H          1.8383270986       -0.9885518961        1.8054903141
 H          2.7429558372        1.5256261793       -0.6013121905
 H          2.4094160518        1.2414477437        1.1220121772
 H          0.1368980393        1.2898954445        0.5013715424
 C         -3.2803140244       -0.9375886463        0.8830409019
 C         -2.3116161094        0.0945779840        0.2956689682
 N         -1.2135081494        0.4096727080        1.2050559341
 C         -1.7361751656       -0.4149744133       -1.0368375022
 O         -1.1803929281        0.5833299712       -1.8421487104
 H         -4.1216107613       -1.0997451414        0.2150986983
 H         -3.6647793469       -0.5939678433        1.8422134907
 H         -2.7688858081       -1.8871785088        1.0345991713
 H         -2.8488738077        1.0301984580        0.1005590419
 H         -1.5725940567        0.7380795549        2.0943472159
 H         -0.6387603657       -0.4177666580        1.3650417665
 H         -2.5432400927       -0.8556998284       -1.6288191659
 H         -0.9991496516       -1.2040730483       -0.8176263390
 H         -0.4668500202        1.0336504136       -1.3535378961
