  28
        -35.97562564
 C          3.1523686263       -1.1259684709       -0.6017591963
 C          1.9505842650       -0.4059633429       -0.0039662514
 N          1.7247036932       -0.8610864936        1.3630142620
 C          2.1294640771        1.1259870063       -0.0761894419
 O          1.0298462578        1.8067271220        0.4727372462
 H          4.0647765904       -0.8365944848       -0.0833792601
 H          3.2589721842       -0.8793170135       -1.6547955873
 H          3.0227223953       -2.2000520091       -0.5009856358
 H          1.0493939073       -0.6740712424       -0.5713321990
 H          2.5910710474       -0.7876638039        1.8897125649
 H          1.0646250739       -0.2241172532        1.8033975615
 H          2.3072549581        1.4334430211       -1.1156375697
 H          2.9967758795        1.4200879848        0.5248924141
 H          0.2691931181        1.6956797767       -0.1267099959
 C         -3.1847981715       -0.8611066435        1.0927463146
 C         -1.9545326814       -0.4263907245        0.2970861531
 N         -1.4671191053       -1.4268830889       -0.6492980138
 C         -2.2351765473        0.8431578177       -0.5197224724
 O         -1.1116247690        1.1787792335       -1.2991536994
 H         -2.9651897380       -1.7596559045        1.6659280638
 H         -4.0165745506       -1.0704852837        0.4212718094
 H         -3.4865242218       -0.0768256973        1.7815082916
 H         -1.1300579622       -0.2156047133        0.9858365984
 H         -1.0268275696       -2.1965335496       -0.1590779884
 H         -2.2410323498       -1.8015699260       -1.1906376918
 H         -2.4404828949        1.6928050768        0.1330555611
 H         -3.1058738194        0.6780710248       -1.1713866170
 H         -0.8004299641        0.3389240770       -1.6742770352
