  28
        -35.97628899
 C          2.0591832477        0.1497428284        1.4422101199
 C          2.4669521859       -0.4240671338        0.0894691412
 N          1.6672707030       -1.6118094240       -0.1990916152
 C          2.2410972453        0.5906043347       -1.0432484051
 O          0.9101890967        0.9979197913       -1.1778053046
 H          1.0130314128        0.4400395556        1.4302940102
 H          2.6593464668        1.0265818381        1.6686045830
 H          2.2123214543       -0.5880972539        2.2274768103
 H          3.5513835371       -0.6475214322        0.1106875507
 H          1.9946076189       -2.0549535288       -1.0516377043
 H          1.7550665202       -2.2831511953        0.5558379108
 H          2.5963804065        0.1459898868       -1.9880777195
 H          2.8300268737        1.4912807505       -0.8493213634
 H          0.3277619107        0.2001493988       -1.1409582681
 C         -3.1684147639       -1.2740550869        0.4800932392
 C         -1.8615673581       -0.4897220354        0.3253386778
 N         -1.1766168189       -0.7809147191       -0.9305600422
 C         -2.1202243057        1.0259443162        0.4206719517
 O         -0.9856985029        1.7646792428        0.7698075215
 H         -3.6074650627       -1.1006944273        1.4585653380
 H         -2.9844562427       -2.3417571160        0.3697137878
 H         -3.8849168400       -0.9649970126       -0.2798737772
 H         -1.1737568484       -0.7658594274        1.1316531966
 H         -0.8277968458       -1.7323894099       -0.9341206974
 H         -1.8118082300       -0.6602758291       -1.7129770553
 H         -2.8527801596        1.2157740424        1.2101495146
 H         -2.5411911733        1.3764602792       -0.5338665247
 H         -0.3118505112        1.6650030514        0.0712128658
