  28
        -35.97629234
 C          3.6035341385       -0.9383899781       -0.8810186940
 C          2.4872028932       -0.6297899018        0.1095845321
 N          3.0356206383       -0.5207807498        1.4520534644
 C          1.7116115774        0.6339672926       -0.3135785867
 O          0.6820807536        0.9412397633        0.5944382489
 H          4.2922867811       -0.0985895580       -0.9470828225
 H          3.1959982224       -1.1317241228       -1.8698802897
 H          4.1548616254       -1.8124871451       -0.5465894933
 H          1.7780700692       -1.4697638176        0.1323976085
 H          3.7713986965        0.1796892473        1.4635489142
 H          2.3068889786       -0.1962858319        2.0817629538
 H          1.3116844692        0.5019881088       -1.3295240004
 H          2.3818862850        1.4990289813       -0.3164505423
 H          0.0649499979        0.1715654936        0.6371492627
 C         -3.6905002490       -1.1801698608       -0.1537447544
 C         -2.5164829292       -0.2536379299        0.1717688212
 N         -1.2694548724       -0.9923307510        0.3903098726
 C         -2.3040352414        0.7808624693       -0.9504707360
 O         -1.7162197648        1.9725456947       -0.5187219380
 H         -4.6154425059       -0.6149195621       -0.2217058317
 H         -3.8059003117       -1.9349321734        0.6229792536
 H         -3.5213270135       -1.6835861700       -1.1048661739
 H         -2.7275714207        0.2948384228        1.0962972729
 H         -1.3603302569       -1.6033357101        1.1955870542
 H         -1.0750301221       -1.5771252875       -0.4182608633
 H         -3.2750025775        1.0659957436       -1.3638492685
 H         -1.7130924012        0.3151847116       -1.7562848004
 H         -0.8475483229        1.7825561430       -0.1185391080
