  28
        -35.97560197
 C          3.2297665400       -1.0311441746       -0.6362893376
 C          1.9789104389       -0.4058259622       -0.0324379042
 N          1.7248258144       -0.9742311170        1.2861682476
 C          2.0978587555        1.1328806072        0.0155231321
 O          0.9437326282        1.7320363259        0.5479481183
 H          4.1102918984       -0.7495465963       -0.0615527657
 H          3.3644796520       -0.6984447153       -1.6621059826
 H          3.1398052379       -2.1138779333       -0.6239727960
 H          1.1092025011       -0.6647367902       -0.6506939490
 H          2.5644939708       -0.8968229633        1.8538884061
 H          1.0132047575       -0.4092144669        1.7432934867
 H          2.3183941172        1.5219382442       -0.9876352718
 H          2.9192577865        1.4138091042        0.6837885567
 H          0.2240380418        1.6459185956       -0.1039305887
 C         -3.2179512257       -0.7938424841        1.0769284554
 C         -1.9675782046       -0.3670058620        0.3090291252
 N         -1.3982478887       -1.4100930986       -0.5402846657
 C         -2.2532440258        0.8310145743       -0.6087068619
 O         -1.1035749272        1.1524221215       -1.3554802554
 H         -3.5799018300        0.0233817391        1.6947942676
 H         -2.9944634522       -1.6422540163        1.7207166980
 H         -4.0086734287       -1.0804822616        0.3847472263
 H         -1.1868660559       -0.0713870869        1.0174363273
 H         -0.9256892674       -2.1107564363        0.0182904104
 H         -2.1328739835       -1.8705752288       -1.0694821193
 H         -2.5188514740        1.7159026442       -0.0286795144
 H         -3.0842575298        0.5881805642       -1.2870805129
 H         -0.7568224915        0.3002100675       -1.6667863744
