  28
        -35.97595347
 C          1.8302378285       -1.4202805688        0.4789386797
 C          2.1898587777        0.0603584744        0.5707742121
 N          3.5256135626        0.1783979571        1.1336463697
 C          2.0650401000        0.7485393010       -0.8064474334
 O          0.7400214349        0.9710770883       -1.2182765009
 H          2.4906794414       -1.9262534871       -0.2237422765
 H          0.8028095770       -1.5457289373        0.1516133843
 H          1.9495291876       -1.8802538173        1.4554282644
 H          1.5008120370        0.5568676881        1.2639595025
 H          4.2080650921       -0.2298646996        0.5024780137
 H          3.7713520195        1.1525012716        1.2703807503
 H          2.6067824179        0.1568564927       -1.5615328005
 H          2.5252694027        1.7415500797       -0.7583283338
 H          0.2455391791        0.1246441955       -1.2405589916
 C         -3.4964325711       -1.3719825583        0.0025354322
 C         -2.1291256068       -0.6872379633        0.0793031399
 N         -1.3214256468       -0.9175908822       -1.1213028781
 C         -2.2988276057        0.8265625073        0.3053077664
 O         -1.1526377146        1.4577023662        0.7935569358
 H         -4.0897543757       -0.9393222233       -0.8019687031
 H         -4.0386260236       -1.2492623741        0.9356795579
 H         -3.3781835690       -2.4378866709       -0.1878054817
 H         -1.5646525277       -1.0935015790        0.9267967524
 H         -1.2190368059       -1.9157176729       -1.2808309084
 H         -1.8037519867       -0.5311750237       -1.9287273468
 H         -3.0711391435        0.9819714011        1.0636771172
 H         -2.6380073298        1.2916446227       -0.6331444848
 H         -0.4611604549        1.4361678403        0.1045588513
