  28
        -35.97569181
 C          3.5846079796       -0.8943569548        0.4686553194
 C          2.1329907037       -0.6398351699        0.0409892118
 N          1.2194936488       -0.4406965415        1.1538534115
 C          2.0777476244        0.5769149987       -0.8920299926
 O          0.7819220331        1.0043315113       -1.2089756143
 H          3.9635191611       -0.0481604538        1.0393720542
 H          4.2204413579       -1.0366351458       -0.4014162288
 H          3.6448593554       -1.7864106441        1.0897192635
 H          1.7678716448       -1.5200492291       -0.5081845763
 H          1.3529615508        0.4750098681        1.5695110504
 H          1.3768999027       -1.1399875554        1.8710245238
 H          2.6315570372        0.3356650191       -1.8129602540
 H          2.5737593281        1.4287085027       -0.4127077063
 H          0.1714387349        0.2305884825       -1.2612952765
 C         -3.1976536961       -1.3073975810        0.4213314620
 C         -1.9231135521       -0.4898567239        0.1919002727
 N         -1.3026117791       -0.7832903277       -1.1025118949
 C         -2.2141999078        1.0192843573        0.2929023098
 O         -1.1173262859        1.7783656751        0.7081754570
 H         -3.5869968655       -1.1364175987        1.4208558750
 H         -2.9924353585       -2.3715497628        0.3111785621
 H         -3.9633348125       -1.0258371258       -0.3009640171
 H         -1.1742784727       -0.7352230311        0.9529422239
 H         -1.0725252076       -1.7699961164       -1.1580257486
 H         -1.9525339875       -0.5716419273       -1.8543880775
 H         -2.9911033699        1.1857816870        1.0444294024
 H         -2.5940924493        1.3768263473       -0.6779946157
 H         -0.3829888699        1.6251379088        0.0836774151
