  28
        -35.97567618
 C          3.0476433872       -1.3189466418       -0.3096148643
 C          1.9172628297       -0.3493695666        0.0076466857
 N          1.4431424876       -0.5524403444        1.3724604423
 C          2.3492229616        1.1121309529       -0.2330392092
 O          1.3499058946        2.0185063554        0.1550791840
 H          3.3356276808       -1.2377739477       -1.3544291272
 H          2.7249695506       -2.3371510616       -0.1094349854
 H          3.9177723496       -1.1029100938        0.3078817781
 H          1.0655307146       -0.5601754575       -0.6535623523
 H          2.2386147788       -0.5802080871        2.0045954885
 H          0.8937729505        0.2634923624        1.6362663769
 H          2.6208457844        1.2496756012       -1.2897421276
 H          3.2233468742        1.3481868355        0.3828232480
 H          0.5432577187        1.8245011706       -0.3552170380
 C         -3.0489911290       -1.0166937587        1.2191743899
 C         -1.9438205138       -0.6557584415        0.2264450075
 N         -1.9996573421       -1.4020862438       -1.0293029906
 C         -2.0052915201        0.8301216550       -0.1541330938
 O         -1.0415401902        1.1302269615       -1.1363132188
 H         -2.9450426889       -0.4316311792        2.1286475039
 H         -2.9928016425       -2.0716966826        1.4797477558
 H         -4.0292496117       -0.8156621867        0.7882820539
 H         -0.9677869152       -0.8650925541        0.6765862603
 H         -1.7742148386       -2.3776199386       -0.8746101801
 H         -2.9383615794       -1.3592013494       -1.4169403721
 H         -1.7998796754        1.4659713368        0.7086835182
 H         -3.0094974180        1.0689864150       -0.5361726640
 H         -1.0340973195        0.3631317295       -1.7309812055
