  28
        -35.97563254
 C          3.0684505546       -1.2292638980       -0.5372395005
 C          1.9203275694       -0.3942372935        0.0142559213
 N          1.6881345670       -0.7222709208        1.4162982005
 C          2.1848458527        1.1141979252       -0.1815793454
 O          1.1525714449        1.8980365172        0.3593701206
 H          4.0032916785       -0.9592848209       -0.0493131930
 H          3.1764122047       -1.0679490365       -1.6065485222
 H          2.8750474756       -2.2830082930       -0.3559007372
 H          0.9974235568       -0.6530327825       -0.5217226459
 H          2.5676812252       -0.6727874901        1.9235584572
 H          1.0870220230       -0.0022607006        1.8119747109
 H          2.3322988627        1.3329353967       -1.2482353060
 H          3.0937515363        1.3992311928        0.3591603498
 H          0.3486288425        1.7587105789       -0.1741657423
 C         -3.1701516632       -0.9421506568        1.1007340612
 C         -1.9506663121       -0.4986042467        0.2932507483
 N         -1.5523118055       -1.4360867994       -0.7545362938
 C         -2.2020610543        0.8472822709       -0.4019793598
 O         -1.1074952782        1.1901930004       -1.2181696869
 H         -3.4078910985       -0.2049971268        1.8626876807
 H         -2.9731266705       -1.8939900936        1.5898385777
 H         -4.0356143320       -1.0573221988        0.4492282299
 H         -1.0900740254       -0.3906078939        0.9612546507
 H         -1.1501712107       -2.2728482231       -0.3488626228
 H         -2.3629818800       -1.7127419827       -1.3013175628
 H         -2.3259234198        1.6492352259        0.3274139634
 H         -3.1148338412        0.7806072363       -1.0127154601
 H         -0.8453459824        0.3637046798       -1.6556144069
