  28
        -35.97568707
 C          3.0344115962       -1.3209551621       -0.3368256188
 C          1.9094200722       -0.3552548907        0.0100559428
 N          1.4736120052       -0.5578515714        1.3876996024
 C          2.3291326300        1.1077131885       -0.2439655627
 O          1.3366416909        2.0105836442        0.1688394149
 H          3.9209000638       -1.1000409207        0.2551363561
 H          3.2921393321       -1.2411583088       -1.3896268242
 H          2.7216327363       -2.3399550674       -0.1252575323
 H          1.0409426162       -0.5710592894       -0.6272371725
 H          2.2863059981       -0.5821398763        1.9977310055
 H          0.9294521098        0.2570413822        1.6654232253
 H          2.5732964284        1.2449860526       -1.3073223846
 H          3.2177815852        1.3475675941        0.3492986956
 H          0.5222541266        1.8235442745       -0.3322019386
 C         -3.0661663844       -1.0195647491        1.1997605716
 C         -1.9394069979       -0.6404205323        0.2386574753
 N         -1.9279997171       -1.4099553480       -1.0041966810
 C         -2.0349048663        0.8360496129       -0.1712682060
 O         -1.0538763952        1.1476782089       -1.1323733532
 H         -3.0130432260       -0.4148580081        2.1007408805
 H         -2.9848950716       -2.0672261906        1.4823705310
 H         -4.0367828786       -0.8588631686        0.7317561974
 H         -0.9733862276       -0.8108574778        0.7251148850
 H         -1.6705068354       -2.3731664634       -0.8245738955
 H         -2.8549016228       -1.4098592488       -1.4213800763
 H         -1.8722989548        1.4930794819        0.6847304248
 H         -3.0348215315        1.0373541024       -0.5848095798
 H         -1.0085995053        0.3712402992       -1.7133398285
