  28
        -35.97775941
 C          3.8317428602       -0.5572088787        0.6177907824
 C          2.5074555299       -0.5708258295       -0.1534496602
 N          1.5570340921       -1.5542692955        0.3579849756
 C          1.8486479984        0.8152427388       -0.1172399926
 O          0.8280219632        0.9604985101       -1.0651278138
 H          3.6627820451       -0.2524768038        1.6497764546
 H          4.5326981726        0.1373904475        0.1634354315
 H          4.2813194770       -1.5491696661        0.6179279966
 H          2.6979655993       -0.8302111577       -1.2014464377
 H          1.9598660163       -2.4843823752        0.3057814591
 H          1.3645662624       -1.3591470053        1.3367162994
 H          2.5938354379        1.5815516185       -0.3466786599
 H          1.4631664397        1.0010776722        0.8977974718
 H          0.2084749027        0.1934198709       -0.9733826689
 C         -3.2991454119       -1.1944469525        0.5950868234
 C         -2.0687885782       -0.3143359451        0.3561863736
 N         -1.1911364930       -0.8413353610       -0.6841051503
 C         -2.4827000315        1.1204976327       -0.0225518238
 O         -1.4778565829        2.0657060398        0.2057377951
 H         -3.8847798669       -0.8188372657        1.4294771486
 H         -2.9954090767       -2.2159969438        0.8187485802
 H         -3.9299871022       -1.2063662272       -0.2925496563
 H         -1.4773895327       -0.2583405323        1.2768350493
 H         -0.7173108835       -1.6848229724       -0.3795726531
 H         -1.7205652094       -1.0422511023       -1.5256535003
 H         -3.3281309735        1.4293845416        0.5982026824
 H         -2.8034698453        1.1315408018       -1.0756567183
 H         -0.6955191776        1.8358297074       -0.3295350075
