  28
        -35.97589498
 C          2.2855690765       -1.1478192371       -0.5237528820
 C          2.1117440618       -0.1764125917        0.6387317279
 N          3.2585821351       -0.2915876436        1.5262735183
 C          1.8896097968        1.2658035635        0.1317037426
 O          0.6485081233        1.4590222030       -0.4938874370
 H          3.1778794986       -0.8916678246       -1.0914640334
 H          1.4301576224       -1.1078002462       -1.1912857801
 H          2.3977854771       -2.1591608667       -0.1427936018
 H          1.2294583905       -0.4668772072        1.2256038594
 H          4.1111845846       -0.0767236626        1.0194476759
 H          3.1836561103        0.3644352942        2.2967841889
 H          2.6497775360        1.5178014813       -0.6143434915
 H          1.9976431185        1.9620216695        0.9803181427
 H         -0.0723995135        1.2586522348        0.1481165396
 C         -3.6815843498       -0.5826224554        0.5990387753
 C         -2.4359572178        0.0518801615       -0.0245994414
 N         -1.5318690707        0.6099500835        0.9854711027
 C         -1.6674474954       -0.9714253539       -0.8813682890
 O         -0.9344338779       -0.3998501722       -1.9256258276
 H         -4.3750116782       -0.9017364862       -0.1736707208
 H         -4.1912946596        0.1329916535        1.2429046238
 H         -3.4041043623       -1.4507517160        1.1957241325
 H         -2.7339394401        0.8801263519       -0.6767911703
 H         -1.9953253359        1.3573381728        1.4923128018
 H         -1.2898344810       -0.1126698973        1.6585162219
 H         -2.3797821874       -1.6485057330       -1.3599410551
 H         -1.0166643459       -1.5691314063       -0.2223229419
 H         -0.3241462513        0.2715087030       -1.5673254815
