  28
        -35.97913143
 C          3.3840743309       -1.1697615513        0.3440942629
 C          2.0139350080       -0.5107530609        0.1986558378
 N          1.6213287180        0.0474258210        1.4796835030
 C          2.0435869910        0.5070656805       -0.9615223306
 O          0.7761180656        1.0291559945       -1.2839429591
 H          4.1468793534       -0.4149601821        0.5232394417
 H          3.6453855312       -1.7226066319       -0.5544101196
 H          3.3683018007       -1.8515996464        1.1893824982
 H          1.2712230980       -1.2813392621       -0.0507280201
 H          2.2965413506        0.7460031873        1.7736208494
 H          0.7186155579        0.5103656978        1.4166705792
 H          2.4867615270        0.0296710519       -1.8478958098
 H          2.6636505498        1.3662583470       -0.6876205615
 H          0.1429525082        0.2831694371       -1.3972915614
 C         -3.2793215789       -1.3469398918        0.2641675938
 C         -1.9599742477       -0.5814729512        0.1347536848
 N         -1.3441003222       -0.7500618075       -1.1842087001
 C         -2.1789685793        0.9174081098        0.4108798205
 O         -1.0123305551        1.6079861006        0.7532780771
 H         -3.6675060081       -1.2706977121        1.2756740024
 H         -3.1314575033       -2.4007131541        0.0324322973
 H         -4.0205892667       -0.9407800649       -0.4229938700
 H         -1.2436404573       -0.9620451326        0.8719570618
 H         -1.1651708154       -1.7340929923       -1.3589774269
 H         -1.9843711308       -0.4230331958       -1.9028322459
 H         -2.8476744738        1.0236238019        1.2691348723
 H         -2.6641034099        1.3762143114       -0.4641365995
 H         -0.3968247060        1.6008742780       -0.0074765588
