  17
        -16.82506999
 C         -2.0257378564        0.7256217716       -0.2607998177
 C         -1.1218480945       -0.5019719084       -0.2584819559
 C         -0.0345951121       -0.4312969233        0.8274335491
 C          1.3854992684       -0.5582562076        0.2735707646
 C          1.8109490021        0.6664281199       -0.5277193469
 H         -2.7808721933        0.6437943418       -1.0400304620
 H         -1.4443631951        1.6274364999       -0.4403486082
 H         -2.5327752936        0.8286739423        0.6963496108
 H         -0.6552894299       -0.5981337953       -1.2404147107
 H         -1.7362738364       -1.3920720688       -0.1096027705
 H         -0.1948755127       -1.2256369406        1.5590442187
 H         -0.1137829059        0.5182232051        1.3608224125
 H          1.4504812829       -1.4495543800       -0.3549156485
 H          2.0790275009       -0.6923964272        1.1073525012
 H          1.1471320127        0.8296303535       -1.3731065831
 H          2.8221315276        0.5403559496       -0.9085214591
 H          1.7894397727        1.5551104148        0.0998231771
