  17
        -16.82497597
 C         -2.1649051491        0.0386350123        0.5745989924
 C         -1.2255605972       -0.4615621446       -0.5164577990
 C          0.0168298698        0.4173351280       -0.6679869185
 C          1.0035207836        0.2844974966        0.5046517797
 C          2.3565786181       -0.2621075971        0.0624951894
 H         -2.5134067774        1.0428772146        0.3423034431
 H         -1.6626453170        0.0678741619        1.5385581826
 H         -3.0312635800       -0.6136485138        0.6604637147
 H         -1.7660119057       -0.4783715118       -1.4661208174
 H         -0.9174280233       -1.4859234888       -0.2946200818
 H         -0.3031403705        1.4557365661       -0.7744344635
 H          0.5260310986        0.1411178740       -1.5935597012
 H          0.5886472166       -0.3858941975        1.2592876038
 H          1.1532367617        1.2548315775        0.9814163355
 H          3.0273697990       -0.3596557079        0.9138593794
 H          2.8200308736        0.4032647532       -0.6630957653
 H          2.2398924564       -1.2423868397       -0.3952228696
