  17
        -16.82855277
 C         -2.1190587047        0.3161042808       -0.5797225585
 C         -1.3638900983       -0.4929624902        0.4685474420
 C          0.0504044906        0.0269730421        0.7280174188
 C          0.9959501025       -0.1647463162       -0.4558630028
 C          2.4155485617        0.2733089768       -0.1161251958
 H         -3.1413136224       -0.0446295620       -0.6705307208
 H         -1.6442899427        0.2338410710       -1.5538739985
 H         -2.1504140786        1.3667740944       -0.2988032380
 H         -1.3108726233       -1.5372136797        0.1515937138
 H         -1.9235310037       -0.4614392552        1.4067072886
 H          0.4632002308       -0.5001872698        1.5921598368
 H          0.0022649800        1.0885436332        0.9826292211
 H          0.6403884198        0.4136170746       -1.3100216106
 H          1.0011006262       -1.2185384286       -0.7447530287
 H          3.0748744875        0.1345593187       -0.9700222449
 H          2.8062728548       -0.3075403497        0.7168894642
 H          2.4331176484        1.3246477488        0.1635053847
