  17
        -16.82558904
 C         -1.8017936435        0.8372396914       -0.2986596852
 C         -1.1830757746       -0.5521191111       -0.1844329948
 C         -0.0300315000       -0.6213556003        0.8272858288
 C          1.3628998239       -0.5493271691        0.1985557589
 C          1.6615141098        0.7761969814       -0.4908335260
 H         -2.6024697983        0.8352307717       -1.0357850711
 H         -1.0632059631        1.5752103677       -0.5981648009
 H         -2.2212180758        1.1435400626        0.6576474811
 H         -0.8258259698       -0.8745732628       -1.1645962060
 H         -1.9682700199       -1.2491500257        0.1173061415
 H         -0.0941192006       -1.5630063009        1.3777080952
 H         -0.1376512150        0.1866131407        1.5540314156
 H          1.4715911181       -1.3629691410       -0.5228985010
 H          2.1029106767       -0.7103079366        0.9869303333
 H          2.6942176112        0.7973285080       -0.8332301524
 H          1.5127094123        1.6059310538        0.1970827770
 H          1.0179661788        0.9194422838       -1.3546996828
