  17
        -16.82945684
 C         -2.5272371055        0.3344754330        0.0000989541
 C         -1.2674715829       -0.5228205798        0.0002179415
 C          0.0000184454        0.3282313467       -0.0004304869
 C          1.2674553248       -0.5228521716       -0.0002240420
 C          2.5272308527        0.3344788568        0.0003022129
 H         -2.5551773248        0.9711122152       -0.8817502849
 H         -2.5549986822        0.9714377461        0.8817034765
 H         -3.4172515955       -0.2907132382        0.0003289561
 H         -1.2682320045       -1.1688075435       -0.8809636139
 H         -1.2677638133       -1.1680253366        0.8819792616
 H          0.0001652762        0.9745452086        0.8807652821
 H         -0.0000619874        0.9734095479       -0.8824292437
 H          1.2681865102       -1.1685121301       -0.8816473937
 H          1.2676367462       -1.1684437023        0.8812200421
 H          2.5546482818        0.9716210201        0.8818199089
 H          2.5556857521        0.9709276418       -0.8816615526
 H          3.4172112889       -0.2907374237        0.0010572628
  17
        -16.82855277
 C         -2.1190587047        0.3161042808       -0.5797225585
 C         -1.3638900983       -0.4929624902        0.4685474420
 C          0.0504044906        0.0269730421        0.7280174188
 C          0.9959501025       -0.1647463162       -0.4558630028
 C          2.4155485617        0.2733089768       -0.1161251958
 H         -3.1413136224       -0.0446295620       -0.6705307208
 H         -1.6442899427        0.2338410710       -1.5538739985
 H         -2.1504140786        1.3667740944       -0.2988032380
 H         -1.3108726233       -1.5372136797        0.1515937138
 H         -1.9235310037       -0.4614392552        1.4067072886
 H          0.4632002308       -0.5001872698        1.5921598368
 H          0.0022649800        1.0885436332        0.9826292211
 H          0.6403884198        0.4136170746       -1.3100216106
 H          1.0011006262       -1.2185384286       -0.7447530287
 H          3.0748744875        0.1345593187       -0.9700222449
 H          2.8062728548       -0.3075403497        0.7168894642
 H          2.4331176484        1.3246477488        0.1635053847
  17
        -16.82760257
 C         -1.8926747175        0.6593493710        0.3319570246
 C         -1.1088673646       -0.1931418819       -0.6590182750
 C          0.0000571746       -1.0172921877       -0.0026114540
 C          1.1089877174       -0.1966193557        0.6581017408
 C          1.8925079921        0.6610504374       -0.3286493724
 H         -1.2647040659        1.4331547125        0.7657766109
 H         -2.2852610654        0.0421766860        1.1375890848
 H         -2.7290636093        1.1444367055       -0.1667821183
 H         -0.6840998343        0.4469024024       -1.4338598110
 H         -1.7981473766       -0.8842123726       -1.1510442758
 H          0.4494303790       -1.6618739797       -0.7626546540
 H         -0.4493967509       -1.6656140646        0.7541774738
 H          1.7983254128       -0.8902936727        1.1463823730
 H          0.6843310636        0.4393710799        1.4363494885
 H          1.2645643081        1.4374162361       -0.7580312113
 H          2.2846194027        0.0481101833       -1.1377427493
 H          2.7292734118        1.1430648302        0.1724655015
  17
        -16.82558904
 C         -1.8017936435        0.8372396914       -0.2986596852
 C         -1.1830757746       -0.5521191111       -0.1844329948
 C         -0.0300315000       -0.6213556003        0.8272858288
 C          1.3628998239       -0.5493271691        0.1985557589
 C          1.6615141098        0.7761969814       -0.4908335260
 H         -2.6024697983        0.8352307717       -1.0357850711
 H         -1.0632059631        1.5752103677       -0.5981648009
 H         -2.2212180758        1.1435400626        0.6576474811
 H         -0.8258259698       -0.8745732628       -1.1645962060
 H         -1.9682700199       -1.2491500257        0.1173061415
 H         -0.0941192006       -1.5630063009        1.3777080952
 H         -0.1376512150        0.1866131407        1.5540314156
 H          1.4715911181       -1.3629691410       -0.5228985010
 H          2.1029106767       -0.7103079366        0.9869303333
 H          2.6942176112        0.7973285080       -0.8332301524
 H          1.5127094123        1.6059310538        0.1970827770
 H          1.0179661788        0.9194422838       -1.3546996828
  17
        -16.82506999
 C         -2.0257378564        0.7256217716       -0.2607998177
 C         -1.1218480945       -0.5019719084       -0.2584819559
 C         -0.0345951121       -0.4312969233        0.8274335491
 C          1.3854992684       -0.5582562076        0.2735707646
 C          1.8109490021        0.6664281199       -0.5277193469
 H         -2.7808721933        0.6437943418       -1.0400304620
 H         -1.4443631951        1.6274364999       -0.4403486082
 H         -2.5327752936        0.8286739423        0.6963496108
 H         -0.6552894299       -0.5981337953       -1.2404147107
 H         -1.7362738364       -1.3920720688       -0.1096027705
 H         -0.1948755127       -1.2256369406        1.5590442187
 H         -0.1137829059        0.5182232051        1.3608224125
 H          1.4504812829       -1.4495543800       -0.3549156485
 H          2.0790275009       -0.6923964272        1.1073525012
 H          1.1471320127        0.8296303535       -1.3731065831
 H          2.8221315276        0.5403559496       -0.9085214591
 H          1.7894397727        1.5551104148        0.0998231771
  17
        -16.82497597
 C         -2.1649051491        0.0386350123        0.5745989924
 C         -1.2255605972       -0.4615621446       -0.5164577990
 C          0.0168298698        0.4173351280       -0.6679869185
 C          1.0035207836        0.2844974966        0.5046517797
 C          2.3565786181       -0.2621075971        0.0624951894
 H         -2.5134067774        1.0428772146        0.3423034431
 H         -1.6626453170        0.0678741619        1.5385581826
 H         -3.0312635800       -0.6136485138        0.6604637147
 H         -1.7660119057       -0.4783715118       -1.4661208174
 H         -0.9174280233       -1.4859234888       -0.2946200818
 H         -0.3031403705        1.4557365661       -0.7744344635
 H          0.5260310986        0.1411178740       -1.5935597012
 H          0.5886472166       -0.3858941975        1.2592876038
 H          1.1532367617        1.2548315775        0.9814163355
 H          3.0273697990       -0.3596557079        0.9138593794
 H          2.8200308736        0.4032647532       -0.6630957653
 H          2.2398924564       -1.2423868397       -0.3952228696
  17
        -16.82495718
 C         -1.7218694396        0.8369829643        0.3939825453
 C         -1.2989920092       -0.5707583149       -0.0104146550
 C          0.0005813626       -0.6429875540       -0.8186873715
 C          1.2960742515       -0.5710039541       -0.0037298691
 C          1.7240723537        0.8380655758        0.3905486236
 H         -1.0466248778        1.2616447467        1.1302386990
 H         -2.7197300056        0.8157085250        0.8280115393
 H         -1.7414722953        1.4925658730       -0.4739734662
 H         -2.0980144237       -0.9995349191       -0.6213558718
 H         -1.2035103893       -1.1932984568        0.8821491568
 H          0.0025584246        0.1482001036       -1.5717340967
 H          0.0014753146       -1.5978155925       -1.3512776993
 H          2.0964473908       -1.0091079213       -0.6062074198
 H          1.1922386353       -1.1852377099        0.8936165357
 H          2.7163132696        0.8144791449        0.8371763099
 H          1.0426898344        1.2758956859        1.1132545121
 H          1.7592197972        1.4837950021       -0.4843053537
