  34
        -57.92439540
 C          3.6484580627        0.6648290541       -1.3038561064
 C          2.8408601457        0.3513902415       -0.0417594455
 C          3.7344823483        0.4000458278        1.2018176749
 Cl         5.0630388171       -0.7821230578        1.1127998235
 C          1.7039470631        1.3679410463        0.1252585886
 Cl         2.3085959564        3.0343482093        0.2782093835
 C          2.2284364463       -1.0413478249       -0.2160347539
 Cl         1.1917124428       -1.5054653983        1.1522240019
 H          4.0756020487        1.6612564631       -1.2326681408
 H          3.0081782236        0.6236645797       -2.1814141716
 H          4.4562899970       -0.0513208440       -1.4245391010
 H          3.1632790939        0.1645762363        2.1005145609
 H          4.1911471879        1.3836164964        1.3027231177
 H          1.1258380846        1.1635567822        1.0262208689
 H          1.0512573893        1.3446796215       -0.7476936536
 H          3.0149523587       -1.7933052785       -0.2767368525
 H          1.6047852063       -1.0759828436       -1.1084510034
 C         -3.4381303824       -1.7458776637        0.7439946579
 C         -2.7785805168       -0.6725310485       -0.1256552769
 C         -3.8279645916        0.0798942349       -0.9503175573
 Cl        -4.7255087636       -1.0084934809       -2.0367000839
 C         -2.0262052948        0.3335850089        0.7549812317
 Cl        -3.1052349725        1.1629773600        1.9011869841
 C         -1.7685660042       -1.3716706133       -1.0401102771
 Cl        -0.8633542632       -0.2268461252       -2.0562006190
 H         -4.1425119120       -1.2851223419        1.4309594229
 H         -2.6864885281       -2.2772178893        1.3223336123
 H         -3.9737897828       -2.4594103232        0.1243423446
 H         -3.3583280324        0.8362810249       -1.5801403404
 H         -4.5605481576        0.5491151944       -0.2951046146
 H         -1.5596807993        1.1107641004        0.1499272693
 H         -1.2686512767       -0.1813778526        1.3461879254
 H         -2.2835584940       -2.0489510099       -1.7211409788
 H         -1.0331113464       -1.9177666677       -0.4506956172
