  34
        -57.92435225
 C          4.1280069305       -0.0569388817        0.4344327858
 C          2.9199133453        0.6182910569       -0.2204289670
 C          2.0888279731        1.3712019990        0.8236430005
 Cl         1.5059887109        0.2916253431        2.1111598704
 C          3.3832513857        1.6177440295       -1.2890578161
 Cl         4.4100940980        2.9013910853       -0.6077342639
 C          2.0831694936       -0.4713831905       -0.8992223612
 Cl         0.6824126453        0.1921178203       -1.7759473812
 H          4.7211274013       -0.5807454886       -0.3109615227
 H          3.8014160179       -0.7721413964        1.1840566345
 H          4.7556573729        0.6890197561        0.9143642011
 H          1.2093257668        1.8253898957        0.3661245856
 H          2.6918824350        2.1393149079        1.3061272230
 H          2.5324775479        2.1128769771       -1.7570123661
 H          3.9780686828        1.1107991648       -2.0491537627
 H          1.6873161785       -1.1670410103       -0.1591063151
 H          2.6783164654       -1.0145448188       -1.6328082402
 C         -4.1130886889       -0.5880250018        1.2860528296
 C         -2.7599387820       -0.8358225548        0.6147126311
 C         -2.9189180634       -0.9334167045       -0.9058109316
 Cl        -3.9860603977       -2.2766776851       -1.3767310440
 C         -1.7869268512        0.3050758830        0.9323885517
 Cl        -2.3689147884        1.8753444845        0.3339286228
 C         -2.1806261821       -2.1365315893        1.1816065939
 Cl        -0.5871739762       -2.5264304391        0.5042386887
 H         -4.5288643198        0.3555076633        0.9427170558
 H         -3.9996329028       -0.5436225270        2.3665451299
 H         -4.8097477673       -1.3844315287        1.0394951348
 H         -1.9557128360       -1.1099449431       -1.3851664508
 H         -3.3647935856       -0.0216707197       -1.3009514903
 H         -0.8239450883        0.1292515274        0.4565461654
 H         -1.6544016735        0.4072443414        2.0094314607
 H         -2.8346984607       -2.9748311605        0.9415715829
 H         -2.0496332749       -2.0631083822        2.2612330682
