  17
        -28.95324107
 C          0.0906086132       -0.5293676420        1.9311310077
 C         -0.4055292588       -0.1044105756        0.5467897870
 C         -0.1035046461       -1.1858563111       -0.5001301154
 Cl         1.6022267850       -1.6935912603       -0.5315641514
 C         -1.9324489191        0.0458263327        0.6330406621
 Cl        -2.6594914114        0.5479126108       -0.9150483484
 C          0.1743529690        1.2608111225        0.1502635051
 Cl         1.9447195664        1.3587083386        0.3063005342
 H          1.1689421898       -0.6558795741        1.9156953154
 H         -0.3641221392       -1.4723729244        2.2239329738
 H         -0.1582992041        0.2264466896        2.6717219663
 H         -0.3458277780       -0.8309101983       -1.5016550065
 H         -0.6831816708       -2.0837214035       -0.2834096809
 H         -2.2036976193        0.8058456436        1.3655732489
 H         -2.3980109168       -0.9019442639        0.9028225163
 H         -0.2302660320        2.0380505611        0.7994024715
 H         -0.0645757755        1.4944540051       -0.8870494627
