  18
        -31.61055537
 O          0.0573021655        0.3317607048       -2.9085081580
 C         -0.8423307183        0.3882869645       -1.8401552827
 C         -0.1359298578        0.6452581720       -0.4824720828
 C         -1.1617575053        0.7085666077        0.6478292887
 Br        -2.1304406857       -0.9604115394        0.9376266277
 C          0.9705530448       -0.3809577412       -0.1995128841
 Br         0.6082309731       -2.1990445273       -0.8256901496
 C          0.5180091048        2.0257052349       -0.6093663895
 Br         1.6231292292        2.4974505777        0.9291219758
 H          0.4316185688       -0.5571199896       -2.9641236328
 H         -1.4459693620       -0.5234441155       -1.7718832721
 H         -1.5157945926        1.2260307635       -2.0484224297
 H         -1.9218896749        1.4600954719        0.4320317881
 H         -0.6783805831        0.9446354041        1.5970575778
 H          1.1591742806       -0.4650397683        0.8706721639
 H          1.8941361063       -0.0912724144       -0.7008834379
 H         -0.2354156701        2.8083276361       -0.6940694308
 H          1.1655459036        2.0529790652       -1.4858328619
