  18
        -31.61030274
 O         -0.7081164197       -0.4337616200       -2.1624551057
 C         -0.2458149549        0.5539097258       -1.2929306906
 C          0.0576655043        0.0347184536        0.1391625817
 C         -1.0754817618       -0.8574575287        0.6510981779
 Br        -2.8174948306        0.0289491124        0.6231342656
 C          1.3574649840       -0.7767441305        0.1631838014
 Br         1.2870545459       -2.4174923845       -0.8877013848
 C          0.2091243798        1.2199226517        1.0948754262
 Br         1.6325995305        2.4459139409        0.5728605656
 H         -1.6504957729       -0.5843065397       -2.0260685018
 H         -0.9555176534        1.3891357365       -1.2240213081
 H          0.6799363170        0.9349152435       -1.7344171605
 H         -0.9017260416       -1.1605886033        1.6840574296
 H         -1.1762015452       -1.7445373062        0.0256699607
 H          1.6045021017       -1.0846813417        1.1806238255
 H          2.1797914605       -0.1917253033       -0.2479228238
 H          0.4543920892        0.8853084404        2.1038143634
 H         -0.7033037226        1.8161005161        1.1224033424
