  18
        -31.60934212
 O         -0.5054082010        0.8351916031       -3.1999150577
 C         -1.2949446292        0.6691709973       -2.0467200668
 C         -0.3591800677        0.3644195976       -0.8543337255
 C         -1.1387790718        0.3866876411        0.4578823873
 Br        -2.7240477212       -0.7474640561        0.4270862192
 C          0.2481748665       -1.0117155041       -1.1275211421
 Br         1.5902269236       -1.5737246661        0.1723805331
 C          0.7023248532        1.4757545643       -0.8548969948
 Br         1.5753119890        1.8114853344        0.8567381198
 H         -1.0801420772        0.9788322476       -3.9585531628
 H         -2.0035326982       -0.1582628156       -2.1799324210
 H         -1.8684789831        1.5829072812       -1.8305827900
 H         -1.4888292924        1.3929578747        0.6885516259
 H         -0.5267208537        0.0180607079        1.2811830556
 H          0.7356304411       -1.0108170927       -2.1019872238
 H         -0.5266938303       -1.7789439003       -1.1087089628
 H          0.2460168824        2.4255753754       -1.1309397226
 H          1.4908542367        1.2448385721       -1.5690583184
