  18
        -31.60995140
 O         -0.7680238441       -0.1081361160       -2.9389446471
 C         -0.2318969262        0.6936736206       -1.9115619022
 C          0.1739959298       -0.2202492347       -0.7392537342
 C         -1.0704176145       -0.8849764813       -0.1481669141
 Br        -2.2922611896        0.3609901759        0.7195217642
 C          1.0527302026       -1.3265802455       -1.3373333211
 Br         1.7675998889       -2.5395597486        0.0088583709
 C          0.9937083174        0.5312031799        0.3167277295
 Br         0.5224143826        2.4078544770        0.5645711878
 H         -1.1385717101        0.4638554563       -3.6181773462
 H         -0.9724431179        1.4231930901       -1.5625982994
 H          0.6524120716        1.2425862681       -2.2677941203
 H         -0.8000284107       -1.6190204502        0.6113676286
 H         -1.6399129058       -1.3657356337       -0.9435621015
 H          1.9125824020       -0.8990161999       -1.8526077274
 H          0.4779457984       -1.9310186921       -2.0368865671
 H          2.0488459966        0.5441321934        0.0426327550
 H          0.8878038755        0.0631969366        1.2956897258
