  18
        -31.61378002
 O         -0.1245388459        0.2327282838       -2.8378019797
 C         -0.9741098481        0.0285390465       -1.7494546323
 C         -0.3147761171        0.2788233035       -0.3579577209
 C         -1.3933368616        0.7115947011        0.6393036285
 Br        -2.8671015734       -0.5596752095        0.7574895266
 C          0.3574460537       -0.9776657956        0.1958207543
 Br         1.6940705709       -1.7512413496       -1.0026591440
 C          0.6855928316        1.4228726635       -0.5311064459
 Br         1.4863101804        2.0113268567        1.1504689510
 H          0.4831441784       -0.5124911728       -2.9305077651
 H         -1.4096885878       -0.9786431346       -1.7617956670
 H         -1.7868325279        0.7493902256       -1.8827905300
 H         -1.8360161865        1.6623009464        0.3418048388
 H         -0.9916836067        0.7985670007        1.6490313896
 H         -0.3772473227       -1.7646049305        0.3678822757
 H          0.8826415272       -0.7606797103        1.1272288087
 H          0.1992268763        2.2939032958       -0.9683693690
 H          1.5112504748        1.1204823523       -1.1744897593
