  18
        -31.61172245
 O          1.4635990985        0.6929000173       -2.5184665743
 C          0.1940243443        0.3640453718       -2.0034512142
 C          0.2962262832        0.1211393016       -0.4786479458
 C         -1.1094153508       -0.0921159052        0.0718250766
 Br        -1.1169510520       -0.5120613165        1.9806630361
 C          1.2142561114       -1.0795823585       -0.2313509239
 Br         0.4608875712       -2.7563822754       -0.8748536031
 C          0.9844388932        1.3114926673        0.1950159487
 Br         0.0755351612        3.0047889159       -0.1453201997
 H          1.4183259549        1.5198566028       -3.0050199134
 H         -0.1598373929       -0.5547496894       -2.4890190368
 H         -0.5405686357        1.1502573153       -2.1976358489
 H         -1.6038542726       -0.9259069718       -0.4257223167
 H         -1.7138225454        0.8077191267       -0.0439381158
 H          1.4092820960       -1.2232778260        0.8312482415
 H          2.1506517615       -0.9410131007       -0.7705835521
 H          1.9969947315        1.4301363150       -0.1885971721
 H          1.0095801830        1.1920382581        1.2779013219
