  18
        -31.61501215
 O         -0.2201006598       -0.3231987566       -2.8909717353
 C          0.3335844830        0.4578293201       -1.8703070828
 C         -0.1050368973       -0.0154894197       -0.4563672373
 C         -1.5890182335        0.3269334352       -0.3254286990
 Br        -2.4087893204       -0.3680514412        1.3071124008
 C          0.0587401432       -1.5325755967       -0.3225605408
 Br         1.8512178926       -2.1514391878       -0.7940163835
 C          0.7304574651        0.6635742561        0.6247971871
 Br         0.6969344010        2.6111395468        0.5021257422
 H          0.3407980978       -1.0912719382       -3.0514124932
 H         -0.0281159536        1.4768373163       -2.0336244206
 H          1.4283559524        0.4737652133       -1.9224926195
 H         -2.1463901123       -0.0939223794       -1.1619111568
 H         -1.7337040304        1.4068859083       -0.2994904451
 H         -0.6302436019       -2.0511381337       -0.9897063487
 H         -0.1133704342       -1.8600934282        0.7021384983
 H          1.7790250933        0.3755938891        0.5465683109
 H          0.3569240517        0.4165275251        1.6197716431
