  18
        -31.61171017
 O         -0.7030475654       -0.4126841605       -2.3211513064
 C         -0.2890805300        0.5766151041       -1.4278658586
 C          0.0077128604        0.0531599038        0.0032574942
 C         -1.1284910939       -0.8675273068        0.4581561052
 Br        -2.8121890885        0.0669196099        0.7574610556
 C          1.3302435255       -0.7207018126        0.0718461581
 Br         1.3241087270       -2.4464976165       -0.8491467334
 C          0.1194487087        1.2374002625        0.9673446936
 Br         1.6163984044        2.4184514171        0.5588415784
 H          0.0446469786       -0.9521477658       -2.6046089058
 H         -1.1246890971        1.2820077051       -1.3714721339
 H          0.5892882154        1.1185645691       -1.8026949278
 H         -0.8854105361       -1.3669604480        1.3964089173
 H         -1.3388905424       -1.6057832983       -0.3160276101
 H          1.5888572067       -0.9471558193        1.1073309836
 H          2.1380710084       -0.1449739844       -0.3803095539
 H          0.2716785673        0.8982137261        1.9929049104
 H         -0.7708278110        1.8632256322        0.9225499774
