  18
        -31.61315624
 O         -1.5938430326        2.0406150479       -1.4722572514
 C         -0.7379889894        0.9398610671       -1.6675187827
 C         -0.3182349042        0.4073734142       -0.2839107464
 C         -1.5678264458        0.0297708119        0.5170847985
 Br        -2.5922917503       -1.4077522112       -0.3071437767
 C          0.6103714952       -0.7859379554       -0.4874756861
 Br         1.2195546309       -1.5607199449        1.1979321721
 C          0.3578115705        1.5291836592        0.5098917008
 Br         1.9982627004        2.1676076992       -0.3248810583
 H         -1.8645255163        2.3841634851       -2.3288064054
 H          0.1572298353        1.2341746046       -2.2323395523
 H         -1.2458781062        0.1422573274       -2.2269386682
 H         -2.2403466700        0.8838407800        0.5798366042
 H         -1.3083891190       -0.3180124589        1.5167382163
 H          1.5086011829       -0.4943781687       -1.0315561257
 H          0.1053076089       -1.5871540916       -1.0267445094
 H          0.6364962811        1.1958185585        1.5093213972
 H         -0.3053384206        2.3905454875        0.5730107350
