  18
        -31.61024557
 O         -1.0650499491        0.0379174426       -2.2316822375
 C          0.0621560877        0.4625078961       -1.5268389973
 C          0.0552548823        0.0598227431       -0.0310276747
 C         -1.2522563110        0.5106385630        0.6346337877
 Br        -2.8021974859       -0.5889341429        0.2025421370
 C          0.2057864581       -1.4547902426        0.1420707147
 Br         1.9139875323       -2.1458190698       -0.5098304660
 C          1.2268722218        0.7406597308        0.6832261365
 Br         1.0514583114        2.6795919032        0.7855612396
 H         -1.0109916532       -0.9036775380       -2.4288457956
 H          0.0512957951        1.5548594929       -1.5948867347
 H          0.9901269183        0.1023003550       -1.9918192379
 H         -1.5093831522        1.5200925109        0.3166073354
 H         -1.1639418700        0.4795219502        1.7213713668
 H         -0.5639361813       -1.9919911632       -0.4110737012
 H          0.1451975250       -1.7354063090        1.1943905079
 H          2.1630103250        0.5537747881        0.1574258139
 H          1.3142660697        0.3921316692        1.7132545249
