  18
        -31.61260375
 O         -1.7993350012        1.8720661234       -1.5273977382
 C         -0.7588147977        0.9421294176       -1.6386017323
 C         -0.3255551943        0.3778856253       -0.2578442032
 C         -1.5467240372       -0.0534375880        0.5594241614
 Br        -2.7239640415       -1.2709117836       -0.4204290939
 C          0.6104533868       -0.8007298389       -0.5004299937
 Br         1.3603895313       -1.5276514493        1.1535052932
 C          0.3313437681        1.5020023801        0.5496260540
 Br         2.0437383905        2.0689474137       -0.1881032942
 H         -2.6467187121        1.4120003338       -1.5301065752
 H          0.0868929975        1.4741447656       -2.0840328676
 H         -1.0266212611        0.1156193404       -2.3066726841
 H         -2.1571401697        0.8078933484        0.8297563461
 H         -1.2456582144       -0.5832147900        1.4631662000
 H          1.4592523993       -0.5080294093       -1.1174224097
 H          0.0809614726       -1.6235722960       -0.9812322109
 H          0.5305576389        1.1960630941        1.5766722265
 H         -0.3096137748        2.3836083467        0.5384095420
