  18
        -31.61010087
 O         -1.0308230595       -0.8755850149       -2.3653253839
 C         -0.4593183935        0.3241979077       -1.9515717840
 C          0.1582880955        0.2722775448       -0.5219096043
 C         -0.7822523295       -0.4177100619        0.4637131054
 Br        -2.5774877448        0.3601559734        0.4679697327
 C          1.4888069897       -0.4864833140       -0.5380407755
 Br         1.3333641851       -2.3394260682       -1.1241716498
 C          0.4190536807        1.7231377607       -0.1147374418
 Br         1.3190812539        1.9058446329        1.6126897205
 H         -1.8980387314       -0.9891919163       -1.9582073871
 H         -1.1863456696        1.1464451546       -1.9938459432
 H          0.3377443104        0.5429660091       -2.6687688850
 H         -0.4087055619       -0.3334802052        1.4848141815
 H         -0.9063161257       -1.4701626410        0.2089206820
 H          1.9259972914       -0.5299833482        0.4599789083
 H          2.1911711731       -0.0084212604       -1.2212035172
 H         -0.5182513337        2.2719843346       -0.0201377839
 H          1.0571726541        2.2225230412       -0.8433594446
