  18
        -31.60937646
 O          0.7162229765        0.9259387425       -3.0580939225
 C         -0.4783511208        0.7699840044       -2.3514322062
 C         -0.2691486770        0.0923690583       -0.9628860636
 C         -1.6168285132        0.1464415849       -0.2483221480
 Br        -1.6589208780       -0.7887585761        1.4701998224
 C          0.1904487639       -1.3364415511       -1.2787569805
 Br         1.1892128416       -2.2442328501        0.1349930946
 C          0.8151924497        0.8088285758       -0.1593500430
 Br         0.5608003253        2.7466660935       -0.0874376204
 H          1.1728907453        1.7177405610       -2.7484451730
 H         -1.1144715919        0.1231452736       -2.9631457744
 H         -0.9955885873        1.7270031328       -2.2182732758
 H         -2.3955100565       -0.3083542384       -0.8606825783
 H         -1.8906695353        1.1794738290       -0.0308918958
 H          0.8648376577       -1.3096263204       -2.1355583797
 H         -0.6628191558       -1.9750150832       -1.5060330599
 H          1.7985516462        0.6438375992       -0.5998031573
 H          0.8231505239        0.4684903565        0.8760351980
