  18
        -31.61093110
 O          0.3767967171        0.7604706388       -2.2002343876
 C         -0.5980296743        0.1232870883       -1.4179882250
 C         -0.0628990829       -0.0218891144        0.0186482032
 C         -1.0219690847       -0.8776835443        0.8489188787
 Br        -2.7835071402       -0.0708195238        1.0560633204
 C          1.3144231645       -0.6893729863       -0.0062413013
 Br         1.2642868601       -2.5330657743       -0.6281073221
 C          0.0679797040        1.3462452142        0.6994079109
 Br         1.5015998099        2.4674749763        0.0091772041
 H          0.0274729751        0.9383781279       -3.0779467873
 H         -0.8254947199       -0.8770038379       -1.8183303811
 H         -1.5319610124        0.7026364400       -1.3987497529
 H         -0.6374136574       -1.0303708360        1.8580750640
 H         -1.1928031405       -1.8448335065        0.3769183030
 H          1.7607265536       -0.7123971801        0.9882825210
 H          1.9663204206       -0.1582703635       -0.6984358814
 H          0.2777751792        1.2237546716        1.7631713627
 H         -0.8480259362        1.9237281514        0.5775313360
