  18
        -20.50706141
 C         -0.5002529443        1.4136527160        0.6008889422
 C         -0.4363293699        0.0061474944       -0.0088968976
 C         -1.6590637573       -0.8090874756        0.4157278528
 N         -0.4072600691        0.0337031323       -1.4701162620
 C          0.8396547464       -0.7060178754        0.4815191211
 N          2.0383038391        0.0217215339        0.0866413245
 H         -1.3398118789        1.9700357744        0.1864159001
 H          0.4236187233        1.9449563171        0.3856128754
 H         -0.6216780490        1.3563558543        1.6792302582
 H         -1.6589243808       -0.9678195049        1.4907545660
 H         -1.6505099577       -1.7740373802       -0.0844165935
 H         -2.5734670977       -0.2866106688        0.1423687840
 H          0.3138865835        0.6747736397       -1.7838313282
 H         -1.2928985786        0.3813704200       -1.8231294661
 H          0.8213722121       -1.7391832531        0.1010981700
 H          0.8187375060       -0.7420645786        1.5735372170
 H          2.1672607033       -0.0594323967       -0.9168049367
 H          2.8518358183       -0.3928383476        0.5281491315
