  18
        -20.50662067
 C         -0.5107608911        1.4194987961        0.5541132973
 C         -0.4358332201        0.0019189387       -0.0118174659
 C         -1.6608105267       -0.8087385019        0.4181058076
 N         -0.4646167704        0.1018887344       -1.4659852106
 C          0.8417898023       -0.6960844842        0.5166012051
 N          2.0391441807        0.0193900500        0.0993986101
 H         -1.3278626238        1.9567687963        0.0812152527
 H          0.4228728183        1.9399801547        0.3584030716
 H         -0.6752629876        1.3919503780        1.6274187385
 H         -1.7125531486       -0.8808281889        1.5010607448
 H         -1.6184619675       -1.8141897617        0.0041379980
 H         -2.5601157818       -0.3242284464        0.0495645967
 H         -0.3160529147       -0.8078440090       -1.8903288037
 H          0.2627699278        0.7304471325       -1.7869812482
 H          0.8335244611       -1.7500098997        0.1835118128
 H          0.8168144603       -0.6909314991        1.6086490538
 H          2.1764622417       -0.0758190461       -0.9022830784
 H          2.8573721274       -0.3667680543        0.5557374039
