  18
        -20.50674349
 C         -0.4400895142        1.4872027360        0.4460303128
 C         -0.3715307180        0.0977363604       -0.2024536157
 C         -1.1872329361       -0.9010787768        0.6213096336
 N         -0.9058558601        0.0778658059       -1.5621522636
 C          1.0997829747       -0.3472778548       -0.3068177911
 N          1.7448344113       -0.4016706212        0.9956377904
 H          0.0417578555        2.2260788655       -0.1922681585
 H          0.0776400394        1.4694789004        1.4001538188
 H         -1.4751494558        1.7851261542        0.6043022253
 H         -2.2394819980       -0.6255132761        0.6013062878
 H         -0.8551860276       -0.9065078194        1.6552665667
 H         -1.0883607055       -1.8983613473        0.2003695055
 H         -0.3899997288        0.7221667529       -2.1523452530
 H         -1.8756427724        0.3761778384       -1.5570528943
 H          1.6400590600        0.3901987957       -0.9083186494
 H          1.1228015525       -1.3043218068       -0.8522590861
 H          2.7361361779       -0.5813007408        0.8804192999
 H          1.3603036934       -1.1643395683        1.5428065780
