%nprocshared=4
%mem=8000mb
%chk=25.chk
%mem=8000mb
#T wB97XD/def2svpp opt=tight freq int(grid=ultrafine) scf=(verytight,qc)

comment

1 2
O        1.725840   -1.591182    0.849925
C        1.567820   -0.183749    0.842863
C        0.371942    0.201448   -0.040427
C        0.230304    1.740291   -0.022022
O        1.408393    2.412897   -0.401703
C        0.609067   -0.289086   -1.486130
O        0.593667   -1.683388   -1.617320
C       -0.883427   -0.461431    0.542546
O       -1.020204   -0.114993    1.866951
Cl       -2.392541    0.024456   -0.390357
H        2.482347   -1.828229    1.400825
H        2.469399    0.300719    0.421999
H        1.404416    0.192940    1.870128
H       -0.117256    2.061180    0.977724
H       -0.546896    2.030217   -0.745114
H        1.959460    2.563515    0.375441
H        1.562729    0.153632   -1.838740
H       -0.191237    0.099248   -2.136056
H        1.190531   -2.044979   -0.941404
H       -0.835731   -1.548194    0.387354
H       -1.740376   -0.627309    2.260103


