  36
        -63.24430714
 O         -2.6619912608       -0.1455227238       -1.7377594449
 C         -1.9942743707       -0.9611929756       -0.8052333341
 C         -2.7162181034       -0.8517796603        0.5527236686
 C         -2.8758539894        0.6231964650        0.9309859655
 Br        -1.1951868878        1.5689288908        1.0271982342
 C         -4.1087948152       -1.4532780705        0.3582475618
 Br        -5.2616671118       -1.2710196274        1.9218019368
 C         -1.9340842056       -1.5725134594        1.6470613972
 Br        -1.6068867415       -3.4492104316        1.2375241049
 H         -2.0813222498        0.0091179787       -2.4900338363
 H         -0.9517830889       -0.6488681252       -0.6780622322
 H         -1.9974139424       -2.0076419649       -1.1399353596
 H         -3.3406821544        0.7363160736        1.9098571815
 H         -3.4629348582        1.1369168563        0.1705809563
 H         -4.0385507262       -2.5221472317        0.1569466450
 H         -4.6160674649       -0.9572242136       -0.4680626816
 H         -2.4822394217       -1.5604509263        2.5902305727
 H         -0.9483772179       -1.1301369855        1.7880820943
 O          5.2766829103       -0.0380077034       -2.1635549036
 C          4.5548193166        0.0818004758       -0.9601548124
 C          3.2136363905        0.7789009436       -1.2631149788
 C          3.4719179135        2.1514153811       -1.8913885872
 Br         4.4297246803        3.3690882361       -0.7089041468
 C          2.4956855288       -0.0950532596       -2.2930735924
 Br         0.7657465234        0.6008290479       -2.8302461518
 C          2.4023232374        0.9624004503        0.0161647534
 Br         1.8640937460       -0.7168267751        0.8209403084
 H          6.1469820113       -0.4012115405       -1.9736929597
 H          5.1122361077        0.6785234943       -0.2254799783
 H          4.3623183844       -0.9094795670       -0.5255856097
 H          2.5380901931        2.6539272031       -2.1435772695
 H          4.0935830748        2.0396376919       -2.7795299927
 H          2.3092701545       -1.0914817741       -1.8920411953
 H          3.0962920171       -0.1751133496       -3.1979230898
 H          1.4795438855        1.5147835572       -0.1679538380
 H          2.9829416970        1.4835683470        0.7761450769
