  36
        -63.24448738
 O         -0.5672140349       -0.7846039060       -0.9994242847
 C         -1.7889170225       -1.3657694688       -0.6089671193
 C         -2.7349758167       -0.2649000517       -0.0898973225
 C         -2.0540665951        0.5616528862        1.0031004831
 Br        -1.4338202883       -0.5080642465        2.4971160311
 C         -3.0277264567        0.6651851298       -1.2695700647
 Br        -4.1591838716        2.1822637726       -0.7956410082
 C         -4.0094600744       -0.8836700780        0.4799786437
 Br        -4.9773496314       -1.9793761587       -0.8128379091
 H         -0.0286149444       -1.4676258111       -1.4166052007
 H         -1.6248650673       -2.1088375140        0.1848914892
 H         -2.2611161135       -1.8737853056       -1.4588077837
 H         -2.7382953057        1.2953249906        1.4273127716
 H         -1.1765834889        1.0678000427        0.6023692427
 H         -3.5531061538        0.1301735188       -2.0607047403
 H         -2.0973870117        1.0781667313       -1.6572710521
 H         -4.7066944969       -0.1082781112        0.8002454932
 H         -3.7839883483       -1.5421664323        1.3192024112
 O          2.1862645996       -0.3169053684        2.5413190103
 C          2.0142608693       -0.6799363752        1.1943089064
 C          3.0792195081        0.0454242844        0.3465102737
 C          3.0727280591        1.5386379071        0.6854562106
 Br         1.3598828105        2.3768685055        0.3517828597
 C          4.4335933702       -0.5419857808        0.7448381382
 Br         5.9511184056        0.3417001150       -0.1123424077
 C          2.8022556606       -0.1225297044       -1.1439032788
 Br         2.6133333230       -1.9857087406       -1.6843472082
 H          1.4135320761       -0.6032260956        3.0412743509
 H          1.0210446339       -0.3990162114        0.8251900415
 H          2.1268695590       -1.7670552055        1.0757068215
 H          3.7991278065        2.0877982734        0.0871449748
 H          3.2740352613        1.6761969322        1.7471068776
 H          4.4949473223       -1.5928570128        0.4607130717
 H          4.5775946588       -0.4472097128        1.8202418010
 H          3.6189326079        0.2840293791       -1.7420916718
 H          1.8643216130        0.3577439638       -1.4228598650
