  36
        -63.24406015
 O         -0.6439160167        0.5734057864        1.2893430166
 C         -1.5179002218       -0.5162990332        1.3998281355
 C         -2.3226792687       -0.7988963866        0.1027983031
 C         -2.9091093855        0.4942205038       -0.4738059135
 Br        -3.8879192216        1.5441566179        0.8502575817
 C         -1.3456439129       -1.3786564186       -0.9193017671
 Br        -2.1471818397       -1.6752399942       -2.6754742688
 C         -3.4683191610       -1.7634091518        0.3995287862
 Br        -2.8699578149       -3.4160201295        1.2490068560
 H         -1.1510076846        1.3940265701        1.3305998365
 H         -2.2171566465       -0.3720682908        2.2321773968
 H         -0.8915794512       -1.3823715007        1.6288994366
 H         -3.6185973675        0.2800597941       -1.2719747122
 H         -2.1191286839        1.1417539498       -0.8567388307
 H         -0.9621155129       -2.3450851125       -0.5929982337
 H         -0.5169626518       -0.6918750888       -1.0766620377
 H         -3.9752057941       -2.0616671946       -0.5190587084
 H         -4.1876331659       -1.3151203465        1.0853322441
 O          5.3573535840        1.7968594931       -0.9907122283
 C          4.6111543732        0.7334397657       -0.4680818823
 C          3.1423939070        1.1357642532       -0.1631395131
 C          3.0905304158        2.4314746457        0.6520512711
 Br         4.1786080507        2.3581093000        2.2754086047
 C          2.4845743323        1.3925245743       -1.5178978174
 Br         0.6605057704        2.0325831044       -1.3882220381
 C          2.4405974161        0.0403568374        0.6338536055
 Br         2.3486245897       -1.6590056325       -0.3200248666
 H          5.7427345673        2.3074086175       -0.2692568393
 H          5.0710178324        0.3261586821        0.4394503458
 H          4.6153963381       -0.0511315959       -1.2309249945
 H          2.0739349258        2.6465232668        0.9817370902
 H          3.4714649815        3.2700536144        0.0678119996
 H          2.4409222812        0.4766163579       -2.1073585947
 H          3.0438983750        2.1481742435       -2.0694695744
 H          1.4093177797        0.3137695064        0.8659199693
 H          2.9773254766       -0.1654659723        1.5599204743
