  36
        -63.24463069
 O         -4.4656241152       -2.5224125345        1.3551661645
 C         -3.8227198808       -2.1951460083        0.1456754975
 C         -3.1192814950       -0.8348233638        0.3203184599
 C         -4.1328192958        0.2150427073        0.7849881796
 Br        -5.5855494484        0.4957262717       -0.4816669443
 C         -2.0758389600       -1.0230202863        1.4227425700
 Br        -1.1320530442        0.6100414554        1.8821104460
 C         -2.4928490399       -0.3728721808       -0.9912801540
 Br        -1.1962370422       -1.6313340208       -1.7017869942
 H         -4.9457784369       -3.3480722265        1.2424388296
 H         -4.5477771248       -2.1242118439       -0.6771274578
 H         -3.0786269735       -2.9610810843       -0.1132673729
 H         -3.6620583637        1.1887097730        0.9187453054
 H         -4.6005314982       -0.1103242488        1.7136703100
 H         -1.3098248468       -1.7375679161        1.1193565931
 H         -2.5566334074       -1.3726542554        2.3350291706
 H         -1.9580521867        0.5698325042       -0.8633145742
 H         -3.2490767993       -0.2580626491       -1.7673680641
 O          4.9414857523       -0.6149489709       -1.8284753384
 C          4.2851208436       -0.8515051740       -0.6051451703
 C          3.2102380316        0.2359571564       -0.4106208590
 C          3.8542289874        1.6220188945       -0.5078684611
 Br         5.2169183061        1.9342737534        0.8482967900
 C          2.2191354729        0.0794362803       -1.5650761968
 Br         0.8226960955        1.4279460981       -1.5746251583
 C          2.5347281927        0.0973491293        0.9497480269
 Br         1.6913870814       -1.6321346308        1.2093441837
 H          5.6455070240       -1.2610531057       -1.9374699899
 H          4.9938431910       -0.8134336268        0.2339058890
 H          3.8074205499       -1.8410186457       -0.6106364475
 H          3.1158247456        2.4124472585       -0.3756009844
 H          4.3552338824        1.7287300975       -1.4694718304
 H          1.7076468037       -0.8824587888       -1.5146442176
 H          2.7402851327        0.1633204820       -2.5174628594
 H          1.7443587938        0.8392902562        1.0759266170
 H          3.2583222272        0.1976056878        1.7582946442
