  36
        -63.24420425
 O         -4.7626415169       -1.8310711279        1.6594265517
 C         -3.7460493331       -1.9542291425        0.7051413255
 C         -3.1289811027       -0.5836400708        0.3118555881
 C         -4.2275028414        0.4406691357        0.0122222178
 Br        -5.5303977394       -0.1957174904       -1.2993538648
 C         -2.3386010525       -0.1034824794        1.5277133133
 Br        -1.6092734367        1.6887847105        1.3198950434
 C         -2.2522488694       -0.7251992233       -0.9274492799
 Br        -0.8306886607       -2.0312004416       -0.7048310964
 H         -5.6006353316       -1.6512764083        1.2170199062
 H         -4.1028176370       -2.4632770553       -0.1981831108
 H         -2.9709178471       -2.5757785056        1.1628566319
 H         -3.8084977224        1.3577923633       -0.4013388731
 H         -4.7927484025        0.6722331499        0.9155372760
 H         -1.4846131057       -0.7526638507        1.7225700208
 H         -2.9807216300       -0.0800096011        2.4077201614
 H         -1.7588827314        0.2161724253       -1.1754468204
 H         -2.8373804184       -1.0639110211       -1.7825749787
 O          4.5191914198        2.7348606320        0.5132978994
 C          3.7766210890        2.0798886137       -0.4880750118
 C          3.1591633684        0.8045817015        0.1188852829
 C          4.2632174651       -0.0626205391        0.7308253701
 Br         5.5890671458       -0.6507707620       -0.5695360166
 C          2.2254542621        1.2639420858        1.2401336911
 Br         1.4090161181       -0.2028309386        2.2174898931
 C          2.4250682852       -0.0047551285       -0.9451517968
 Br         0.9987026539        0.9897630061       -1.8055349689
 H          4.9496669516        3.5057661687        0.1319598894
 H          4.4196704110        1.8023060855       -1.3349168604
 H          2.9753898325        2.7329910434       -0.8609443493
 H          3.8549032521       -0.9716631718        1.1717930933
 H          4.8084449914        0.5101252022        1.4803634855
 H          1.4007351189        1.8579561228        0.8445279092
 H          2.7799246934        1.8540365932        1.9681878620
 H          1.9561971072       -0.8914379267       -0.5150752164
 H          3.1010959475       -0.3045168448       -1.7454062520
