  36
        -63.24423448
 O         -4.6262270434       -2.4879145131        1.2277341164
 C         -3.8059353924       -2.1710973202        0.1388221939
 C         -3.0836666207       -0.8066534749        0.3135229157
 C         -4.0689778050        0.2761041049        0.7636494759
 Br        -5.6428096678        0.4055520815       -0.3892249813
 C         -2.0475256955       -1.0068241569        1.4179984587
 Br        -1.1256543583        0.6311695900        1.9212165623
 C         -2.4488313436       -0.3627144379       -0.9996856893
 Br        -1.2019704934       -1.6686831798       -1.7186164683
 H         -5.4927535396       -2.0815151870        1.1082744760
 H         -4.3711480735       -2.1639472948       -0.8008652519
 H         -3.0565599020       -2.9658280368        0.0797712385
 H         -3.6044520146        1.2618693755        0.7494685630
 H         -4.4418984152        0.0626232286        1.7658639127
 H         -1.2694136795       -1.7036035095        1.1054261233
 H         -2.5278928791       -1.3855199053        2.3196874553
 H         -1.8785704117        0.5593178819       -0.8739829024
 H         -3.2066625886       -0.2181956602       -1.7698896413
 O          4.9580762570       -0.6205980819       -1.8369209947
 C          4.3034564790       -0.8420202745       -0.6098896616
 C          3.2275854911        0.2467768546       -0.4287858615
 C          3.8704265542        1.6320402959       -0.5445688572
 Br         5.2308620276        1.9649160227        0.8093997014
 C          2.2359599638        0.0740856955       -1.5804630235
 Br         0.8361371374        1.4171795586       -1.6007556584
 C          2.5530369102        0.1249069292        0.9338195929
 Br         1.7052113066       -1.6004150416        1.2124630190
 H          5.6616466615       -1.2682864370       -1.9392607504
 H          5.0129549097       -0.7919250032        0.2278498540
 H          3.8270729383       -1.8321364476       -0.6016886738
 H          3.1312616417        2.4238132025       -0.4247082382
 H          4.3729062279        1.7255520030       -1.5067941694
 H          1.7274251311       -0.8887503467       -1.5195778327
 H          2.7551587024        0.1500811106       -2.5345684872
 H          1.7649730178        0.8705054139        1.0530304211
 H          3.2777388666        0.2323784886        1.7404317160
