  36
        -63.24403126
 O         -5.8225466311       -0.4208106717        0.7477357989
 C         -4.7903276502       -0.9297923755       -0.0473470158
 C         -3.3985687523       -0.3687199653        0.3552853007
 C         -3.4472019891        1.1562084830        0.5007998884
 Br        -4.2134744954        2.0443518186       -1.0610303096
 C         -3.0641727188       -0.9816536780        1.7147435246
 Br        -1.4356263376       -0.2777744898        2.5057044509
 C         -2.3493219361       -0.7106365714       -0.6947536976
 Br        -2.2412753217       -2.6195783638       -1.0821843182
 H         -6.1193858086        0.4234168149        0.3873905912
 H         -4.9653215264       -0.7308423906       -1.1111510339
 H         -4.7975200412       -2.0137562586        0.1019291745
 H         -2.4483646451        1.5755887639        0.6167561080
 H         -4.0686023813        1.4410392644        1.3501232538
 H         -2.9136560981       -2.0579013560        1.6272402571
 H         -3.8688963465       -0.7850745918        2.4230256625
 H         -1.3560928228       -0.4182522080       -0.3552232378
 H         -2.5708331610       -0.2210704100       -1.6427323434
 O          0.8409998525       -1.6639735449        0.1219525576
 C          1.6983737699       -1.0957246401       -0.8356407218
 C          2.6198062602       -0.0776550505       -0.1320143104
 C          1.7942836082        0.8740385820        0.7365643697
 Br         0.4376371052        1.8249900705       -0.2586070803
 C          3.5406212161       -0.8801965195        0.7894884242
 Br         4.7231739618        0.2365238900        1.8681187416
 C          3.4071033655        0.7356555344       -1.1559122527
 Br         4.4733706929       -0.3731578875       -2.3580245859
 H          0.3784038546       -2.4143929285       -0.2685570251
 H          1.1228984046       -0.5820512544       -1.6211101217
 H          2.3127574774       -1.8660589250       -1.3176257085
 H          2.4206260539        1.6401868017        1.1914963629
 H          1.2620592878        0.3169912334        1.5071520827
 H          4.1901848071       -1.5361021009        0.2096939505
 H          2.9454754011       -1.4708134165        1.4849188434
 H          4.1098687473        1.4076373533       -0.6611189441
 H          2.7397074871        1.3125542151       -1.7968060056
