  36
        -63.24428415
 O         -0.7571956671       -1.4303241931       -0.6092705275
 C         -1.5167369412       -1.2135310151        0.5415205278
 C         -2.8511007331       -0.4708212421        0.2739065621
 C         -2.5920442901        0.9030248010       -0.3523558929
 Br        -1.4292184239        2.0268249472        0.7304247991
 C         -3.6332423008       -1.3240476499       -0.7251037752
 Br        -5.2929259576       -0.4897625004       -1.3341616408
 C         -3.6248109343       -0.2700351487        1.5760625821
 Br        -4.0340752477       -1.9397491984        2.5034329957
 H         -0.4042534961       -0.5892032185       -0.9544683398
 H         -0.9487309886       -0.6596737650        1.3033465363
 H         -1.7340884693       -2.2072642322        0.9422764893
 H         -3.5191096375        1.4636484487       -0.4691992362
 H         -2.1038087723        0.8049394382       -1.3224368263
 H         -3.9177462350       -2.2746090922       -0.2744594572
 H         -3.0303018500       -1.5138052880       -1.6128408072
 H         -4.5855729635        0.2107941955        1.3847903886
 H         -3.0518870211        0.3295019376        2.2839689024
 O          0.6119603689        0.8436223688       -1.5376742531
 C          1.9444199132        0.5532832146       -1.8711631188
 C          2.8362192861        0.2315438134       -0.6396816900
 C          2.5138500311        1.1740219488        0.5254830738
 Br         2.5571189634        3.0611786142        0.0067838791
 C          2.5430216621       -1.2101272731       -0.2174400543
 Br         3.4159400207       -1.7196749487        1.4591736165
 C          4.3100015847        0.4035639923       -1.0047048746
 Br         4.8202979612       -0.6205546494       -2.5869438615
 H          0.5681334231        1.7460548653       -1.1887399188
 H          2.3875530619        1.3873950319       -2.4262301723
 H          1.9082781602       -0.3164434730       -2.5314113634
 H          3.2398908084        1.0663834540        1.3297769839
 H          1.5129495762        0.9919470920        0.9171159777
 H          2.9094385447       -1.9078953843       -0.9705493021
 H          1.4766921159       -1.3755442874       -0.0709493394
 H          4.9550451744        0.0570763372       -0.1963567394
 H          4.5380392928        1.4446979980       -1.2330775885
