  36
        -63.24464032
 O         -4.6363017703       -1.7793106758        1.8122699646
 C         -3.7679450504       -1.9752039273        0.7208518384
 C         -3.1659068009       -0.6122642345        0.3260757100
 C         -4.2912902661        0.3880588451        0.0466001532
 Br        -5.4551540798       -0.1519782802       -1.4188127783
 C         -2.3699493155       -0.1215867023        1.5365328193
 Br        -1.6062560294        1.6472769889        1.2965438907
 C         -2.2962069413       -0.7414763123       -0.9201593037
 Br        -0.8309319235       -1.9956471823       -0.6996394828
 H         -5.0518270145       -2.6169993436        2.0372970637
 H         -4.3081358616       -2.3943936813       -0.1394740694
 H         -2.9591670212       -2.6674153948        0.9929164991
 H         -3.8942149838        1.3636130386       -0.2328455442
 H         -4.9315516667        0.4767573716        0.9236707076
 H         -1.5306461564       -0.7849472439        1.7484525819
 H         -3.0175464345       -0.0655524324        2.4101332519
 H         -1.8378914744        0.2133614304       -1.1833756863
 H         -2.8761176310       -1.1101682323       -1.7657743996
 O          4.4927830980        2.7286568054        0.5663703611
 C          3.7492530131        2.0865340793       -0.4428197623
 C          3.1371699813        0.8002964743        0.1461012512
 C          4.2444543359       -0.0708714995        0.7462895681
 Br         5.5743307998       -0.6339708118       -0.5606751654
 C          2.2016334998        1.2405564050        1.2732427211
 Br         1.3951954564       -0.2413782386        2.2341949119
 C          2.4064946138        0.0029129175       -0.9292919871
 Br         0.9792049796        1.0045230733       -1.7826193702
 H          4.9187416814        3.5071114225        0.1954815703
 H          4.3907641636        1.8237944009       -1.2954942416
 H          2.9448974523        2.7424492289       -0.8035353672
 H          3.8395383575       -0.9880638032        1.1732697406
 H          4.7863842067        0.4930221288        1.5048491680
 H          1.3726334465        1.8333746899        0.8850485538
 H          2.7530187071        1.8253947064        2.0078530755
 H          1.9386756658       -0.8897316799       -0.5104724694
 H          3.0851056839       -0.2862461765       -1.7312815359
