  36
        -63.24473937
 O         -4.5085436075        1.3510523200       -1.4625474784
 C         -3.9006941040        1.2807227123       -0.1954425634
 C         -3.3079689504       -0.1307354122       -0.0190481342
 C         -4.4087469470       -1.1795482705       -0.2038689080
 Br        -5.8204589342       -1.0631981474        1.1365679257
 C         -2.2780324848       -0.3169278315       -1.1354595399
 Br        -1.3559066308       -2.0313542198       -1.0574594755
 C         -2.7002211334       -0.2890902607        1.3711219748
 Br        -1.2296948786        0.9188345490        1.7029513787
 H         -4.9147910770        2.2162500411       -1.5708287134
 H         -4.6341957174        1.4679772446        0.6020191382
 H         -3.0980740435        2.0271892886       -0.1112992112
 H         -4.0091086786       -2.1912150773       -0.1324956000
 H         -4.8946212627       -1.0340054956       -1.1680578257
 H         -1.4983160984        0.4446379654       -1.0885191967
 H         -2.7698807284       -0.2696116545       -2.1055774553
 H         -2.3020328872       -1.2952151114        1.5109115175
 H         -3.4371672283       -0.0804107832        2.1464747736
 O          0.3670194218        1.4975959011       -1.1390506260
 C          1.6115610165        1.0430247596       -1.5926645064
 C          2.5508276445        0.5631419503       -0.4534541004
 C          2.5677402281        1.5654826024        0.7054805157
 Br         2.9033904819        3.3981827751        0.1233462135
 C          1.9918964861       -0.7600162070        0.0677233149
 Br         2.9700258636       -1.4602682876        1.6055568500
 C          3.9745030032        0.4065299233       -0.9822221440
 Br         4.0816891209       -0.7584492647       -2.5443848108
 H          0.4718068181        2.3708283512       -0.7407592924
 H          2.1222766307        1.8200204741       -2.1747942609
 H          1.3993245962        0.2033825654       -2.2595261271
 H          3.3565682241        1.3268835373        1.4176698088
 H          1.6065250633        1.5779277892        1.2212919796
 H          2.0348816205       -1.5339755416       -0.6982003922
 H          0.9633216300       -0.6287144094        0.3962089149
 H          4.6246640355       -0.0382450220       -0.2277631960
 H          4.3820554706        1.3679468130       -1.2957716772
