  36
        -63.24448840
 O         -0.5615284376       -0.7457338617       -1.0495069567
 C         -1.8485423248       -1.2683275914       -0.8187311680
 C         -2.7113175332       -0.2112303288       -0.1020418838
 C         -2.0132577237        0.3021612912        1.1592704437
 Br        -1.4993706090       -1.1098717168        2.3877389425
 C         -2.8646414646        0.9696792589       -1.0635297461
 Br        -3.8729779171        2.4556527049       -0.3029693147
 C         -4.0599215187       -0.8087479571        0.2933359020
 Br        -5.0624402821       -1.5197768926       -1.2224500065
 H         -0.0561645194       -1.4010673073       -1.5452384278
 H         -1.7903883396       -2.1727860491       -0.1966221989
 H         -2.3270927210       -1.5380380000       -1.7685103356
 H         -2.6645082893        0.9666986498        1.7255794611
 H         -1.0979450819        0.8285076229        0.8931884741
 H         -3.4002927675        0.6676990205       -1.9634383766
 H         -1.8840310263        1.3629733211       -1.3290763911
 H         -4.6998199845       -0.0518385400        0.7487897371
 H         -3.9307353675       -1.6426258279        0.9839241210
 O          2.0789227002       -0.5155816785        2.4924266032
 C          1.9648654207       -0.8220495930        1.1248635427
 C          3.0371360079       -0.0311816053        0.3481443276
 C          2.9967284653        1.4402945347        0.7694620815
 Br         1.2814848869        2.2715878026        0.4334028462
 C          4.3915287116       -0.6189860082        0.7460376515
 Br         5.9150734165        0.3351215822       -0.0207234743
 C          2.7992786708       -0.1187855208       -1.1559838494
 Br         2.6301939693       -1.9500670695       -1.8018333625
 H          1.3387225732       -0.9176601015        2.9610425387
 H          0.9773154173       -0.5513405268        0.7326192533
 H          2.1117344239       -1.8988023314        0.9615809334
 H          3.7301459671        2.0324861536        0.2229798779
 H          3.1664481271        1.5221267112        1.8422696771
 H          4.4775102571       -1.6505949598        0.4036389976
 H          4.5085098298       -0.5838986257        1.8283619665
 H          3.6289176912        0.3227800400       -1.7098457814
 H          1.8666917804        0.3734372876       -1.4316958197
