  36
        -63.24418797
 O         -1.0022848354       -0.2746368235        1.4590689729
 C         -2.2309416348       -0.8941325446        1.1822348130
 C         -2.9062057337       -0.3676162462       -0.1130338647
 C         -2.8254318544        1.1615930749       -0.1927902251
 Br        -3.4395911786        2.0407928291        1.4424918670
 C         -2.1457212141       -0.9625981419       -1.2991753653
 Br        -2.7452345652       -0.2725139654       -3.0291657548
 C         -4.3780252618       -0.7752905882       -0.1356226075
 Br        -4.6365737364       -2.6968300530        0.0975120074
 H         -1.1718589590        0.6087626408        1.8158392071
 H         -2.9213320532       -0.7695255946        2.0239402182
 H         -2.0140836585       -1.9593810096        1.0721925627
 H         -3.4543561451        1.5449506991       -0.9949908299
 H         -1.7992753475        1.4963742742       -0.3492292637
 H         -2.2792943033       -2.0435252993       -1.3399007867
 H         -1.0837676137       -0.7353914427       -1.2319645395
 H         -4.8389662892       -0.5205915807       -1.0907273853
 H         -4.9277300359       -0.2959883294        0.6746174185
 O          1.0620685793       -1.6102544713        0.0294754337
 C          1.9187767469       -0.7396160397       -0.6445606199
 C          2.9356528029       -0.0279756789        0.2864144512
 C          2.2079673817        0.7834777220        1.3619552985
 Br         0.9845931471        2.0985328299        0.6229174957
 C          3.7446605844       -1.1301647014        0.9704072080
 Br         4.9826082938       -0.4636651422        2.3287489054
 C          3.8292842983        0.9181847140       -0.5135717621
 Br         4.8257168990        0.0281582874       -1.9388451210
 H          0.4178854227       -1.1138752149        0.5632144167
 H          1.3642500359        0.0233524086       -1.2104164592
 H          2.4642776804       -1.3581905936       -1.3623698466
 H          2.9110830268        1.3462340976        1.9755023100
 H          1.6075262910        0.1340539011        1.9995558253
 H          4.3524690022       -1.6655234417        0.2413724465
 H          3.0772707672       -1.8338376011        1.4675698194
 H          4.5768483062        1.3823166313        0.1320387579
 H          3.2402458903        1.6936014944       -1.0042722439
