  36
        -63.24395047
 O         -4.7904674934        1.4459921551       -1.0317372946
 C         -3.9260424730        1.2362617087        0.0477249434
 C         -3.2494651857       -0.1619199852        0.0068308682
 C         -4.2866759438       -1.2575042737       -0.2583066551
 Br        -5.7834518916       -1.2178712392        1.0025222065
 C         -2.2682127335       -0.1346359181       -1.1643166894
 Br        -1.3349333359       -1.8294939890       -1.4321057106
 C         -2.5629937256       -0.4605210452        1.3353336013
 Br        -1.2348641208        0.8631286508        1.8164147781
 H         -5.6647724085        1.0980273120       -0.8206084989
 H         -4.4440552026        1.3606352596        1.0065204000
 H         -3.1533641510        2.0075224228       -0.0260601262
 H         -3.8443958255       -2.2499849729       -0.1721509019
 H         -4.7208334534       -1.1391204665       -1.2513916423
 H         -1.4875559967        0.6123017914       -1.0140873688
 H         -2.7977237363        0.0819800016       -2.0914024879
 H         -2.0386222072       -1.4170203080        1.3004119323
 H         -3.2839689236       -0.4721875007        2.1533310155
 O          0.3851026012        1.6358748153       -0.9781904866
 C          1.6194275595        1.1966428792       -1.4737276978
 C          2.5436753171        0.5958566180       -0.3806077179
 C          2.5915035193        1.4997016313        0.8559781596
 Br         2.9987094407        3.3602878016        0.4253614480
 C          1.9390174348       -0.7460818079        0.0292418420
 Br         2.8834164396       -1.6031555484        1.5082240882
 C          3.9616721841        0.4358411530       -0.9226262703
 Br         4.0328914247       -0.6061840377       -2.5716595858
 H          0.5027574331        2.4801396410       -0.5250741173
 H          2.1487140047        2.0097803574       -1.9846909182
 H          1.3897999979        0.4240462033       -2.2122372242
 H          3.3670988240        1.1750106086        1.5484471933
 H          1.6287493606        1.5066490328        1.3688282546
 H          1.9598141240       -1.4555148631       -0.7977762848
 H          0.9135540769       -0.6053432936        0.3636522411
 H          4.5966061645       -0.0877151120       -0.2066950725
 H          4.4002048913        1.4055089237       -1.1594867668
