%nprocshared=4
%mem=8000mb
%chk=dimer.chk
%nprocshared=4
%mem=8000mb
#T wB97XD/def2svpp opt=tight freq int(grid=ultrafine) scf=(verytight,qc) Volume=tight

Dimer

0 1
 O         -5.4848729337       -1.1196816478        1.2904584706
 C         -4.5546167700       -1.4469801608        0.2848765390
 C         -3.3982157604       -0.4299488322        0.3393193103
 C         -3.9435411040        0.9870820573        0.1404226640
 Br        -4.7641728664        1.2577615161       -1.6063550791
 C         -2.8068165442       -0.5219479314        1.7470923884
 Br        -1.3196652582        0.6753033403        2.0383254117
 C         -2.3721203074       -0.7239650663       -0.7517385410
 Br        -1.4622460519       -2.4302436443       -0.5104559639
 H         -6.2461762119       -1.7031017072        1.2175655545
 H         -5.0208752182       -1.4084761380       -0.7090290135
 H         -4.1581682536       -2.4605213063        0.4406345005
 H         -3.1488009433        1.7296445453        0.2132972274
 H         -4.7214228627        1.1911102838        0.8760596445
 H         -2.4300414388       -1.5259168059        1.9434080980
 H         -3.5637433278       -0.2687012034        2.4881012973
 H         -1.5878442560        0.0351161800       -0.7762209088
 H         -2.8519430908       -0.7800423104       -1.7282679870
 O          0.1830412205        1.1963205455       -0.8647149741
 C          1.4229533834        0.7500835735       -1.3394228783
 C          2.4057111783        0.3344187500       -0.2115383188
 C          2.4303982965        1.3784457449        0.9097441013
 Br         2.7097601183        3.1955729418        0.2528862490
 C          1.8946444404       -0.9817218277        0.3729144281
 Br         2.9344137253       -1.6024326595        1.9041838969
 C          3.8171074983        0.1921830798       -0.7759456522
 Br         3.9088964050       -1.0313013214       -2.2937888811
 H          0.2780459962        2.0921632026       -0.5174629252
 H          1.8984770171        1.5144064517       -1.9658840209
 H          1.2097799063       -0.1188156582       -1.9675002858
 H          3.2428446312        1.1832910377        1.6084764667
 H          1.4828847443        1.3884953956        1.4503525489
 H          1.9345840216       -1.7819538040       -0.3656613732
 H          0.8734688784       -0.8633871374        0.7282709297
 H          4.4997611278       -0.2064525604       -0.0244132852
 H          4.1907140048        1.1502318826       -1.1382491878


