  32
        -39.71653111
 C         -2.5800847502       -0.9815749898       -1.2594567093
 C         -2.5137513084        0.0023044802       -0.0943457396
 C         -2.0802264166        1.3879830460       -0.5706301902
 C         -3.8877621139        0.0939182411        0.5907157231
 C         -1.5754534632       -0.5036075418        0.9842103100
 O         -1.0278421415        0.1915517955        1.8031258660
 H         -1.5947373392       -1.1078259649       -1.6984726454
 H         -3.2613899126       -0.6125242477       -2.0230839155
 H         -2.9341616213       -1.9532658244       -0.9218119357
 H         -1.9110250176        2.0379167182        0.2846450091
 H         -2.8447127063        1.8305552763       -1.2050782289
 H         -1.1551109919        1.3150323569       -1.1374938631
 H         -4.1872383182       -0.8755127858        0.9843324957
 H         -4.6364988758        0.4221339890       -0.1270540036
 H         -3.8547370865        0.8056516432        1.4124702757
 H         -1.5420353948       -1.6061433009        1.0636726015
 C          2.9561183018       -0.6667344219       -1.5188549076
 C          2.6638944983        0.0991187785       -0.2304756608
 C          3.5455838172       -0.4093584151        0.9164406125
 C          2.8865234817        1.6033850630       -0.4289203380
 C          1.2288675228       -0.0898487526        0.1897108045
 O          0.4034273505       -0.7480922608       -0.3823916063
 H          2.7640355929       -1.7276389587       -1.3784939670
 H          3.9943561442       -0.5339572079       -1.8125010782
 H          2.3165355924       -0.3112185619       -2.3232121163
 H          3.3142237827        0.1143951791        1.8409713411
 H          4.5933730745       -0.2444339776        0.6763512078
 H          3.3903538054       -1.4742370674        1.0742057960
 H          2.2575905068        1.9809296153       -1.2322042106
 H          3.9260370606        1.7908089293       -0.6875713516
 H          2.6507978506        2.1506149279        0.4807951970
 H          0.9553066183        0.4507444909        1.1178805446
