  32
        -39.71720754
 C         -2.4966766627       -0.1553537791        1.3333434651
 C         -2.5424457661       -0.0864645862       -0.1906397905
 C         -2.3551273552       -1.4791868558       -0.7997989627
 C         -3.8687951971        0.5231664264       -0.6668565080
 C         -1.4429433343        0.8020222793       -0.7133945012
 O         -0.7154378642        1.4983390185       -0.0613860889
 H         -1.5725849135       -0.6307221814        1.6507717553
 H         -3.3365736511       -0.7319380214        1.7127239623
 H         -2.5337021586        0.8448005177        1.7585613649
 H         -2.3927607462       -1.4355938102       -1.8864052233
 H         -3.1436356715       -2.1424385425       -0.4525395057
 H         -1.3950697221       -1.8899515892       -0.4982308403
 H         -4.0113591977        1.5124824961       -0.2372133175
 H         -4.6953747549       -0.1116000691       -0.3562664923
 H         -3.8885595324        0.6096095873       -1.7513953645
 H         -1.3591049765        0.7808968451       -1.8204119535
 C          2.3390881971       -0.2080270706       -1.3913698673
 C          2.5446597436        0.0728785606        0.0954409207
 C          3.8551051800       -0.5639052902        0.5840124134
 C          2.5579161771        1.5777950174        0.3705018897
 C          1.4430043469       -0.5612468200        0.9080261210
 O          0.6804866698       -1.4061238932        0.5270714760
 H          2.2220957907       -1.2759479856       -1.5599580193
 H          3.1888458668        0.1494800754       -1.9676795483
 H          1.4411815543        0.2943752965       -1.7421047820
 H          3.9814861019       -0.4155998620        1.6545195017
 H          4.6974717488       -0.1064432738        0.0702179758
 H          3.8610628805       -1.6321945061        0.3785686355
 H          1.5930247785        2.0117047797        0.1212316849
 H          3.3265032769        2.0583213371       -0.2302982371
 H          2.7648249356        1.7759592107        1.4199329626
 H          1.4044285589       -0.1956693148        1.9533671835
