  32
        -39.71723670
 C         -2.5896823973       -0.2891315643        1.4525711832
 C         -2.5576094788       -0.0292263360       -0.0554248746
 C         -2.3114443702       -1.3253190133       -0.8235504771
 C         -3.8735264971        0.6227483358       -0.5063691579
 C         -1.4674567828        0.9712178302       -0.3452876417
 O         -0.6486033804        0.8979181815       -1.2193314398
 H         -1.6311290280       -0.6807142071        1.7829013696
 H         -3.3647477526       -1.0150369858        1.6865126938
 H         -2.7984758447        0.6283474642        1.9988209227
 H         -2.1799258836       -1.1169396318       -1.8827134175
 H         -3.1494250500       -2.0065819361       -0.6987242258
 H         -1.4100906925       -1.8064598512       -0.4533693678
 H         -4.0297713804        1.5718572910        0.0023717290
 H         -4.7066246942       -0.0358064321       -0.2719006729
 H         -3.8637021089        0.8015823810       -1.5794387505
 H         -1.4924183960        1.8498284272        0.3315459594
 C          2.5996997987        0.3216152595       -1.4430930547
 C          2.5576757737        0.0339856424        0.0595346453
 C          3.8717711699       -0.6237252827        0.5076311527
 C          2.3038451677        1.3151160509        0.8500323081
 C          1.4679258971       -0.9739217757        0.3243653513
 O          0.6473890653       -0.9205603751        1.1983163717
 H          2.8171259035       -0.5847649581       -2.0042526059
 H          3.3728907999        1.0553730715       -1.6580105611
 H          1.6416350056        0.7140831453       -1.7738118230
 H          3.8546933913       -0.8227675460        1.5770475577
 H          4.7051208384        0.0407563001        0.2915124089
 H          4.0335669246       -1.5627765057       -0.0177423138
 H          1.4027915608        1.8004694209        0.4845315069
 H          3.1403544440        2.0010380098        0.7419077343
 H          2.1677728600        1.0869514671        1.9045306204
 H          1.4953553953       -1.8373844572       -0.3713419791
