  32
        -39.71637302
 C         -2.3359013152       -0.6612797411        1.4753564913
 C         -2.5894399619       -0.0182966201        0.1083272889
 C         -2.4832052076       -1.0604532859       -1.0019450120
 C         -3.9695587890        0.6544811649        0.0909934421
 C         -1.5712952320        1.0760161338       -0.0906149036
 O         -0.8611146827        1.2257031968       -1.0458792856
 H         -1.3478003056       -1.1147841927        1.4979174683
 H         -3.0763395277       -1.4355652092        1.6607720983
 H         -2.4019657320        0.0781441894        2.2710657361
 H         -2.5449975102       -0.5821025757       -1.9765933455
 H         -3.2850175553       -1.7894098945       -0.9155148536
 H         -1.5310689863       -1.5792919189       -0.9306491924
 H         -4.0346106260        1.4258751741        0.8557196956
 H         -4.7409411417       -0.0875542129        0.2830958410
 H         -4.1607021749        1.1098343378       -0.8783744545
 H         -1.5306311821        1.7905658037        0.7580455722
 C          3.5473512500       -0.0056793703       -1.2201204463
 C          2.6300225553        0.0323756043        0.0030965634
 C          3.3279899401       -0.5484637724        1.2314885976
 C          2.1833596810        1.4776476577        0.2742074129
 C          1.3607486121       -0.7271871662       -0.3001637874
 O          0.7623375759       -1.4301903147        0.4681539098
 H          3.8291517208       -1.0296780111       -1.4566734998
 H          4.4532522785        0.5631283356       -1.0237311495
 H          3.0494685834        0.4262627829       -2.0852478115
 H          2.6324132157       -0.6046806402        2.0651809688
 H          4.1725278001        0.0733245091        1.5181925541
 H          3.6883043347       -1.5532948550        1.0225247402
 H          1.5703973692        1.8491132553       -0.5437661846
 H          3.0556071648        2.1185441890        0.3811861205
 H          1.5994547754        1.5266181142        1.1906744374
 H          0.9789467114       -0.5507271526       -1.3230788993
