  32
        -39.71551535
 C         -2.6773740661        0.3760095208        1.3164871822
 C         -2.7849057574       -0.2181708850       -0.0925557707
 C         -2.2235730849       -1.6376829600       -0.1171626459
 C         -4.2466275180       -0.2037676183       -0.5585286128
 C         -2.0077077587        0.6773867281       -1.0246257189
 O         -1.0989064295        0.3480289374       -1.7357902405
 H         -1.6401232479        0.3818374018        1.6432268259
 H         -3.2575767703       -0.2246410194        2.0129807208
 H         -3.0583399962        1.3950845563        1.3381035904
 H         -2.2043500191       -2.0201250242       -1.1350870969
 H         -2.8337900675       -2.2968596980        0.4951962691
 H         -1.2087312308       -1.6416849975        0.2715935905
 H         -4.6393304743        0.8109046621       -0.5710332598
 H         -4.8539096356       -0.7999341771        0.1185928533
 H         -4.3335804197       -0.6216331747       -1.5593271734
 H         -2.3578609151        1.7300457328       -1.0086798464
 C          3.1765821707        1.3932775591       -0.6175154054
 C          2.8689606566        0.1244275174        0.1874676769
 C          3.3495075871       -1.1083733308       -0.5863215511
 C          3.5197652656        0.1876059964        1.5671408574
 C          1.3659805930        0.0321395229        0.3069375917
 O          0.7373211393        0.0515534974        1.3304586974
 H          2.6764800126        1.3656431826       -1.5830262381
 H          4.2484712066        1.4749674217       -0.7828818363
 H          2.8411077210        2.2772553516       -0.0795274479
 H          4.4248532244       -1.0530317220       -0.7394110630
 H          2.8632475531       -1.1653791880       -1.5576108294
 H          3.1260110662       -2.0181036719       -0.0331481288
 H          3.1485506345        1.0475413985        2.1193486395
 H          4.6000603415        0.2684092765        1.4749441345
 H          3.2817957588       -0.7072231874        2.1373307626
 H          0.8578406851       -0.0516247524       -0.6715321931
