  32
        -39.71715648
 C         -3.8771206883        0.5825091180        0.4427208872
 C         -2.5185440087       -0.0368220672        0.0812512161
 C         -2.5420657031       -1.5442576625        0.3444059419
 C         -2.1712836187        0.2575080536       -1.3764559931
 C         -1.5045118369        0.5965378926        1.0015406565
 O         -0.6895617869        1.4216934621        0.6933747750
 H         -4.1089179310        0.4200550601        1.4932675157
 H         -4.6593087543        0.1245912855       -0.1583694453
 H         -3.8728480524        1.6531530932        0.2499533351
 H         -1.5530849620       -1.9676923006        0.1880965767
 H         -3.2432858880       -2.0282057621       -0.3313151141
 H         -2.8481526607       -1.7516792768        1.3674201369
 H         -2.0617700427        1.3287548444       -1.5287463534
 H         -2.9509903400       -0.1146889230       -2.0363732626
 H         -1.2317846765       -0.2226621468       -1.6379944248
 H         -1.5857423205        0.2468416544        2.0496410180
 C          3.8580725505       -0.4828583636       -0.7420829466
 C          2.5117488892        0.0615526228       -0.2458739075
 C          2.5327158454        0.2671506261        1.2661071453
 C          2.1803851786        1.3754523819       -0.9622251469
 C          1.4567841863       -0.9439124347       -0.6284617568
 O          0.7617933159       -1.5733623754        0.1198028594
 H          3.8324862366       -0.6618952812       -1.8151251518
 H          4.1017921193       -1.4168523685       -0.2402238127
 H          4.6444604325        0.2380934132       -0.5315943621
 H          3.3360106244        0.9440236274        1.5456652270
 H          2.6774536912       -0.6826632719        1.7755990806
 H          1.5867719490        0.6919833628        1.5910718516
 H          1.2180398111        1.7503665939       -0.6234921680
 H          2.1443691764        1.2323729889       -2.0404995130
 H          2.9416142968        2.1182976280       -0.7367825978
 H          1.3659772370       -1.0778781713       -1.7277901464
