  32
        -39.71575695
 C         -2.7814060793       -1.3073830265       -0.4806345680
 C         -2.6071892685       -0.0340599748        0.3560074044
 C         -3.9749538641        0.4698161386        0.8340343925
 C         -1.6838340807       -0.2981607127        1.5430141469
 C         -2.0306665696        1.0287162296       -0.5464886500
 O         -0.9946778685        1.6126322011       -0.3879741802
 H         -3.3902511366       -1.1142521502       -1.3618844461
 H         -3.2710896159       -2.0736017091        0.1162118962
 H         -1.8140840570       -1.6889566906       -0.8011139008
 H         -3.8638923823        1.3829853406        1.4149182957
 H         -4.4446766356       -0.2830352864        1.4613131511
 H         -4.6299858599        0.6725650063       -0.0100216117
 H         -0.7379596741       -0.7099398399        1.1989182435
 H         -2.1428486704       -1.0080893153        2.2267485796
 H         -1.4809816793        0.6257925544        2.0800265571
 H         -2.6717117860        1.2457427718       -1.4258406451
 C          3.0255530754        1.1301537186       -1.1553034534
 C          2.5799260595        0.0768471647       -0.1377993297
 C          3.7263331584       -0.8674298226        0.2190973001
 C          2.0395902357        0.7768485964        1.1188296402
 C          1.4130953397       -0.6861724098       -0.7158247744
 O          1.2545703929       -1.8762288693       -0.6859030323
 H          3.3679655940        0.6585858685       -2.0745945603
 H          3.8423630341        1.7206382701       -0.7464171164
 H          2.1990139409        1.7971663576       -1.3902478685
 H          3.3752008348       -1.6521366381        0.8869555973
 H          4.5296420678       -0.3223385179        0.7090372749
 H          4.1210400096       -1.3392424440       -0.6785900151
 H          1.1686136947        1.3787920698        0.8705213966
 H          2.8077935362        1.4241400322        1.5358005369
 H          1.7565437136        0.0453334941        1.8723551648
 H          0.6519894040       -0.0218846833       -1.1705123281
