  32
        -39.71643890
 C         -2.0523417886       -1.2398493041       -0.9501660684
 C         -2.5660707012       -0.0267714861       -0.1618675524
 C         -2.9060708281        1.1220123913       -1.1092920938
 C         -3.7883578781       -0.4285354602        0.6682335407
 C         -1.4529186145        0.3674740007        0.7779375819
 O         -0.7540277119        1.3382968219        0.6770439477
 H         -1.2243170854       -0.9525542400       -1.5926468829
 H         -2.8521414516       -1.6422450874       -1.5678707820
 H         -1.7003491393       -2.0164663247       -0.2762496034
 H         -3.2849162178        1.9747065907       -0.5502132692
 H         -3.6606625234        0.8106082030       -1.8274862232
 H         -2.0176997234        1.4398903262       -1.6495193083
 H         -3.5450645860       -1.2516892423        1.3363650951
 H         -4.5948139109       -0.7452381191        0.0108931742
 H         -4.1402977786        0.4106274064        1.2649067289
 H         -1.3049560955       -0.3536762266        1.6043390944
 C          1.8117149871        0.1912975612       -1.4380053045
 C          2.5256266360        0.0907225137       -0.0925223745
 C          3.9367433883       -0.4877047205       -0.2697804778
 C          2.6001291981        1.4641959177        0.5805844339
 C          1.7860783946       -0.8457119769        0.8307428186
 O          0.8663273735       -1.5575096397        0.5373053629
 H          1.6578713613       -0.7997499879       -1.8589296331
 H          2.3970884366        0.7844841300       -2.1360762072
 H          0.8431867004        0.6657563804       -1.3026322303
 H          4.4315978078       -0.6028717012        0.6924308064
 H          4.5325093960        0.1816660216       -0.8860758047
 H          3.8931470191       -1.4599768550       -0.7560876530
 H          1.5979429781        1.8531681020        0.7438498757
 H          3.1443161449        2.1580332504       -0.0558474601
 H          3.1117949379        1.3994204432        1.5387420473
 H          2.1899570123       -0.8424416457        1.8643688604
