  32
        -39.71555526
 C         -3.6314981572        0.9785669745        0.7728619076
 C         -2.8196465789       -0.1477836857        0.1381736148
 C         -2.7169823725       -1.3473164548        1.0891997931
 C         -3.4456263166       -0.5918673658       -1.1882707770
 C         -1.4071024916        0.3034109253       -0.1491077338
 O         -0.9363161751        1.3725386701        0.1312494165
 H         -4.6423253791        0.6428265812        0.9909964218
 H         -3.6819018834        1.8314036790        0.1001796393
 H         -3.1622046855        1.3058970859        1.6974181860
 H         -3.7078678087       -1.7530727938        1.2800879872
 H         -2.2781862504       -1.0461360077        2.0380635778
 H         -2.0983229387       -2.1291528919        0.6544113663
 H         -3.5098937824        0.2455773227       -1.8797184612
 H         -4.4490182161       -0.9739812690       -1.0147477207
 H         -2.8502061704       -1.3766414407       -1.6493994127
 H         -0.8009836596       -0.4720173844       -0.6528680474
 C          4.2544094839       -0.1423904442       -0.0089061840
 C          2.7487942530        0.1343152121        0.0825574139
 C          2.1614159688       -0.4820556677        1.3499350618
 C          2.4902051147        1.6459812395        0.0523894870
 C          2.0997277089       -0.4541840359       -1.1450490236
 O          1.2287791937       -1.2797428973       -1.1622749087
 H          4.4489169203       -1.2127615235        0.0080755570
 H          4.7648268480        0.3146256153        0.8355945274
 H          4.6686574691        0.2705564377       -0.9263442319
 H          1.1041379163       -0.2414301156        1.4253215171
 H          2.6704036897       -0.0958578530        2.2295043362
 H          2.2662680525       -1.5644235437        1.3293231865
 H          2.8922813798        2.0895923591       -0.8561164712
 H          2.9695742179        2.1161713136        0.9077824395
 H          1.4225033331        1.8483761928        0.0978068279
 H          2.5042836670       -0.0413024327       -2.0916536701
