%nprocshared=4
%mem=8000mb
%chk=22.chk
%nprocshared=4
%mem=8000mb
#T wB97XD/def2svpp opt=tight freq int(grid=ultrafine) scf=(verytight,qc) Volume=tight

Dimer

0 1
 C         -3.8691503184        0.5977909744       -0.0443911658
 C         -2.4982126751       -0.0958475938       -0.0624849699
 C         -2.5870537736       -1.4527413857        0.6393698239
 C         -1.9970379109       -0.2637490636       -1.4944119376
 C         -1.5674710592        0.7942018010        0.7214153856
 O         -0.7068643710        1.4981690562        0.2702308868
 H         -4.5982182829       -0.0218719502       -0.5612312774
 H         -3.8163081571        1.5622254529       -0.5449933863
 H         -4.2108336656        0.7547534483        0.9768056535
 H         -3.2775618190       -2.1005956674        0.1048398027
 H         -2.9407981441       -1.3392805868        1.6622453983
 H         -1.6083735612       -1.9254229693        0.6557056298
 H         -1.8489906450        0.7079669930       -1.9596956953
 H         -2.7134008920       -0.8307369594       -2.0835408310
 H         -1.0483548122       -0.7938120556       -1.4873331836
 H         -1.7626330771        0.7761967852        1.8137947821
 C          1.9988736540        0.2621365419       -1.4952622480
 C          2.4981608372        0.0959571474       -0.0624662232
 C          3.8682273019       -0.5994021848       -0.0417233835
 C          2.5878183979        1.4538264815        0.6373160013
 C          1.5657085847       -0.7921130503        0.7216406595
 O          0.7068525746       -1.4980240378        0.2702101885
 H          1.8503995335       -0.7101412289       -1.9592256559
 H          2.7165355045        0.8274731898       -2.0843979523
 H          1.0507233719        0.7931772178       -1.4901699710
 H          4.2085194915       -0.7551932606        0.9801205748
 H          4.5986856473        0.0185223273       -0.5586845372
 H          3.8147214616       -1.5645630565       -0.5408671276
 H          1.6096487589        1.9276088140        0.6519339950
 H          3.2796344102        2.1000805093        0.1025378594
 H          2.9403385883        1.3415827345        1.6607440927
 H          1.7580856948       -0.7709828118        1.8144376566


