  13
        -24.99716469
 C         -0.5448185666        1.0497034264       -1.4535278772
 C         -0.2662779579        0.4579372452       -0.0882306151
 C         -0.2517646567        1.4889166421        1.0307800084
 Cl        -1.4482952739       -0.8342576409        0.2901631800
 N          1.0995968851       -0.1876843009       -0.0722308983
 O          1.9256890764        0.2966501353       -0.8028468140
 O          1.2820788645       -1.0887948066        0.6985455466
 H         -0.5504962840        0.2730658491       -2.2144700099
 H          0.2234379748        1.7774733691       -1.7043407720
 H         -1.5138955258        1.5401225332       -1.4472643281
 H         -1.2242747837        1.9686992576        1.1015762323
 H          0.5018102807        2.2469999808        0.8238359541
 H         -0.0277594480        1.0119378467        1.9828611265
