  13
        -24.99802544
 C         -0.4297662977        1.3506961678       -1.2452038985
 C         -0.2544608817        0.5276088666        0.0104569226
 C         -0.4315561192        1.2994770794        1.2980353601
 Cl        -1.3859266000       -0.8849393270       -0.0186651108
 N          1.0874010621       -0.1636642122       -0.0026085211
 O          1.5697564544       -0.4047182561       -1.0777201758
 O          1.5658204961       -0.4527820192        1.0623627828
 H         -0.2395629079        0.7450406974       -2.1276981144
 H          0.2673376318        2.1864953259       -1.2388174460
 H         -1.4439090525        1.7366950526       -1.2927283009
 H         -0.2400560533        0.6593265725        2.1555565135
 H         -1.4464839696        1.6811790449        1.3610044265
 H          0.2637802443        2.1363158057        1.3250653354
  13
        -24.99751803
 C         -0.2517579021        1.6169533463       -0.8529825194
 C         -0.2713395035        0.4401464126        0.1079237934
 C         -0.5499950739        0.8445806595        1.5457832222
 Cl        -1.4469158864       -0.7894870450       -0.4341846112
 N          1.1012548844       -0.1932582130        0.0747107385
 O          1.2112564980       -1.3327119901       -0.2775040705
 O          1.9998728364        0.5337395439        0.4197996936
 H         -1.2049501590        2.1367758849       -0.8173845788
 H         -0.0777680733        1.2786823225       -1.8721634952
 H          0.5416318305        2.3045013633       -0.5658860454
 H         -0.5832035384       -0.0299833114        2.1919216709
 H         -1.5060656212        1.3569305676        1.6050829010
 H          0.2361827548        1.5130597085        1.8917558742
  13
        -24.99716469
 C         -0.5448185666        1.0497034264       -1.4535278772
 C         -0.2662779579        0.4579372452       -0.0882306151
 C         -0.2517646567        1.4889166421        1.0307800084
 Cl        -1.4482952739       -0.8342576409        0.2901631800
 N          1.0995968851       -0.1876843009       -0.0722308983
 O          1.9256890764        0.2966501353       -0.8028468140
 O          1.2820788645       -1.0887948066        0.6985455466
 H         -0.5504962840        0.2730658491       -2.2144700099
 H          0.2234379748        1.7774733691       -1.7043407720
 H         -1.5138955258        1.5401225332       -1.4472643281
 H         -1.2242747837        1.9686992576        1.1015762323
 H          0.5018102807        2.2469999808        0.8238359541
 H         -0.0277594480        1.0119378467        1.9828611265
