  13
        -24.99802544
 C         -0.4297662977        1.3506961678       -1.2452038985
 C         -0.2544608817        0.5276088666        0.0104569226
 C         -0.4315561192        1.2994770794        1.2980353601
 Cl        -1.3859266000       -0.8849393270       -0.0186651108
 N          1.0874010621       -0.1636642122       -0.0026085211
 O          1.5697564544       -0.4047182561       -1.0777201758
 O          1.5658204961       -0.4527820192        1.0623627828
 H         -0.2395629079        0.7450406974       -2.1276981144
 H          0.2673376318        2.1864953259       -1.2388174460
 H         -1.4439090525        1.7366950526       -1.2927283009
 H         -0.2400560533        0.6593265725        2.1555565135
 H         -1.4464839696        1.6811790449        1.3610044265
 H          0.2637802443        2.1363158057        1.3250653354
