%nprocshared=4
%mem=8000mb
%chk=monomer.chk
%nprocshared=4
%mem=8000mb
#T wB97XD/def2svpp opt=(calcall,tight) int(grid=ultrafine) scf=(verytight,qc) Volume=tight

Monomer

0 1
C       -0.510431   -1.740422    0.017894
C       -0.296814   -0.273758   -0.288257
C       -0.484707    0.076981   -1.753998
Cl       -1.365825    0.720699    0.749755
N        1.144792    0.120312    0.126291
O        1.656092   -0.525290    1.003039
O        1.627217    1.074484   -0.425771
H       -0.336978   -1.960983    1.075772
H        0.181289   -2.346452   -0.585707
H       -1.543208   -2.015322   -0.239286
H       -0.382005    1.155407   -1.919592
H       -1.488142   -0.243137   -2.064285
H        0.259755   -0.453922   -2.368751



