  18
        -23.31515285
 C         -1.0862193239        0.7676228886       -1.2572659577
 C         -0.6353759775        0.0157041780       -0.0000265786
 C         -1.0850237426        0.7617600698        1.2611407627
 C         -1.2389597862       -1.3892638726       -0.0030059020
 C          0.8939972278       -0.1150047956       -0.0003593410
 N          1.5692634955        1.0591657305       -0.0001525927
 O          1.4766066475       -1.1752530933       -0.0003783013
 H         -0.7303497976        1.7957493345       -1.2650459896
 H         -2.1732171706        0.7868784261       -1.3031972801
 H         -0.7144244434        0.2685780683       -2.1493971800
 H         -0.7133003411        0.2579143664        2.1505941509
 H         -2.1719731839        0.7818782786        1.3076222219
 H         -0.7279224298        1.7894062508        1.2737539525
 H         -0.9112779557       -1.9365199697       -0.8827661308
 H         -2.3250908057       -1.3361478285       -0.0024113233
 H         -0.9104945414       -1.9406269231        0.8738880042
 H          1.1123907961        1.9516466818       -0.0004579391
 H          2.5750390059        1.0316422462       -0.0002124121
  18
        -23.31506580
 C         -1.1495051533        1.0894631079       -1.0004537172
 C         -0.6341329499        0.0415234558       -0.0145901263
 C         -1.0992520200        0.3935145399        1.4034750652
 C         -1.1714659011       -1.3411462985       -0.4026729663
 C          0.8944828940       -0.0814760790        0.0423543498
 N          1.6124529100        0.7318490293       -0.7643715473
 O          1.4402321677       -0.8742533264        0.7789910979
 H         -0.8520105938        0.8564582412       -2.0215803079
 H         -0.8030164963        2.0878899724       -0.7385030172
 H         -2.2375372206        1.1000594554       -0.9689488967
 H         -2.1852167779        0.3745160038        1.4617262245
 H         -0.7522416798        1.3860367404        1.6847885281
 H         -0.6949664467       -0.3254633219        2.1110389733
 H         -0.7679477788       -2.0933619957        0.2699101490
 H         -0.8768827266       -1.5946116873       -1.4193348486
 H         -2.2572418833       -1.3569423096       -0.3401834502
 H          1.1964463465        1.4004370379       -1.3843470306
 H          2.6160120734        0.6583576856       -0.7328754035
