  28
        -34.50285518
 C          1.7167442097        1.6364352912       -0.5583476080
 C          1.8903386869        0.3621331004        0.2464605628
 C          1.0544952182        0.3827665595        1.5129227789
 C          1.6124675867       -0.8712756283       -0.5927815697
 Br         3.8152249144        0.2685726458        0.8129968383
 H          0.6791196043        1.7151100648       -0.8817524269
 H          2.3558708936        1.6301374233       -1.4389534767
 H          1.9620268503        2.5111826802        0.0405765268
 H          0.0032839286        0.4587041440        1.2413039256
 H          1.3123809135        1.2380819381        2.1341756970
 H          1.2057592750       -0.5248233409        2.0946489414
 H          0.5801935609       -0.8402210674       -0.9364908151
 H          1.7654716937       -1.7799467141       -0.0132729268
 H          2.2645930753       -0.9030055607       -1.4632541430
 C         -2.7102662736       -2.1105307597        0.4576754066
 C         -3.5199971787       -1.0198950862       -0.2220604595
 C         -4.2355886900       -1.5341553666       -1.4583848013
 C         -4.4750414375       -0.3403827750        0.7430246637
 Br        -2.2245638963        0.3726704975       -0.8364690902
 H         -2.1628726014       -1.7152159584        1.3116633323
 H         -1.9963509369       -2.5546197750       -0.2339180917
 H         -3.3800713312       -2.8935768114        0.8108239341
 H         -4.9567187036       -2.2981831036       -1.1700122415
 H         -3.5308448116       -1.9742230950       -2.1620465218
 H         -4.7695335748       -0.7304281865       -1.9627755819
 H         -5.2049220849       -1.0645542569        1.1030185294
 H         -5.0095317892        0.4730140767        0.2551308520
 H         -3.9402253567        0.0645605962        1.6005377416
