  28
        -34.50283214
 C          0.9356529863        1.5644126730        0.7122889645
 C          1.8814052292        0.4526342091        0.2973689068
 C          1.4577056331       -0.8896419472        0.8644280175
 C          2.0493349213        0.3947138686       -1.2093551820
 Br         3.6784334769        0.8827900702        1.0846084375
 H         -0.0465148903        1.3717993627        0.2848190893
 H          1.2867505346        2.5279091606        0.3488168464
 H          0.8457017013        1.6161340316        1.7957713169
 H          2.1794366768       -1.6634331822        0.6108025542
 H          0.4939833544       -1.1645249396        0.4397224908
 H          1.3671994984       -0.8438655850        1.9482299639
 H          1.0872580017        0.1644712309       -1.6664701076
 H          2.7628423306       -0.3768308076       -1.4917515794
 H          2.3996434405        1.3485715065       -1.5982690998
 C         -3.6524745774       -2.3907094335        0.0252090287
 C         -3.6228040436       -0.8841681612       -0.1624658777
 C         -4.8069366926       -0.3914325419       -0.9747304353
 C         -3.5010633642       -0.1518409242        1.1625737053
 Br        -1.9791241557       -0.4613814406       -1.2157097710
 H         -4.5396034422       -2.6692369732        0.5928899354
 H         -2.7739693963       -2.7331437157        0.5697309779
 H         -3.6835288752       -2.9029287622       -0.9349876504
 H         -5.7303270242       -0.6012218079       -0.4360501769
 H         -4.8519606065       -0.8906975690       -1.9412588720
 H         -4.7439551698        0.6822564039       -1.1441232216
 H         -4.3797268250       -0.3565704749        1.7729875851
 H         -3.4318954158        0.9237498552        1.0089031672
 H         -2.6183575312       -0.4792595445        1.7093179685
