  28
        -34.50288646
 C          1.2372491205       -0.8637230391       -0.8430507115
 C          1.8541814312        0.2305342297        0.0090979141
 C          1.8305284435        1.5705286020       -0.7020373409
 C          1.2073874227        0.3146172356        1.3795171206
 Br         3.7810767846       -0.2642272589        0.2952316536
 H          0.1983549262       -0.6106802009       -1.0469203669
 H          1.2777117059       -1.8248915686       -0.3329381485
 H          1.7597557201       -0.9564287708       -1.7930164682
 H          2.3190095718        2.3366611382       -0.1034202843
 H          0.7957417425        1.8675622301       -0.8694954463
 H          2.3352642926        1.5094334143       -1.6641254823
 H          0.1659003412        0.6090587968        1.2643139707
 H          1.7071020136        1.0571902833        1.9981976575
 H          1.2502525739       -0.6451227737        1.8916349643
 C         -2.4987862345       -1.5069161112        1.1891259195
 C         -3.3263977135       -0.8224770918        0.1151667865
 C         -3.4524447932       -1.6800601866       -1.1315960845
 C         -4.6818451688       -0.3841593754        0.6398076781
 Br        -2.3440427549        0.8405647286       -0.4154910594
 H         -3.0043893149       -2.4161576836        1.5117109575
 H         -2.3703341458       -0.8593971744        2.0546872903
 H         -1.5148157023       -1.7764728904        0.8101214018
 H         -3.9898264317       -2.5962112750       -0.8897713534
 H         -2.4720373298       -1.9493092429       -1.5209991592
 H         -4.0006325652       -1.1554394805       -1.9121544253
 H         -5.2556729729       -1.2593506715        0.9422143189
 H         -5.2434019674        0.1470911359       -0.1267357577
 H         -4.5722356619        0.2704138111        1.5027553051
