  28
        -34.50471924
 C          3.5289471364        1.0114142049        1.4422577137
 C          2.7990741261        0.7007747235        0.1472607574
 C          1.9074977652        1.8483042925       -0.2887169272
 C          3.7561280783        0.2778101810       -0.9532597375
 Br         1.6175223138       -0.8576426392        0.5116544614
 H          4.1943736345        1.8606968485        1.2901537384
 H          4.1253819300        0.1610412209        1.7700003920
 H          2.8247067911        1.2643492095        2.2331408970
 H          2.5195063728        2.7243286442       -0.4996888505
 H          1.1899838751        2.1063753497        0.4874965857
 H          1.3469486168        1.5934732686       -1.1858004185
 H          4.4300806499        1.1017251856       -1.1858831903
 H          3.2125433795        0.0126841415       -1.8585694484
 H          4.3535221527       -0.5793145307       -0.6454000684
 C         -2.3268761004       -1.0644361549        1.3644558396
 C         -2.6331765859       -0.7935120598       -0.0969039193
 C         -2.0172312097       -1.8443194541       -1.0020460705
 C         -4.1230509307       -0.6319548140       -0.3448184258
 Br        -1.7810721667        0.9486385584       -0.5608726482
 H         -2.7877147417       -2.0050339775        1.6631801804
 H         -2.7181832768       -0.2711726675        1.9991105512
 H         -1.2528791249       -1.1429108678        1.5224033730
 H         -2.4662783918       -2.8137721859       -0.7902418583
 H         -0.9451191512       -1.9173163813       -0.8291336165
 H         -2.1886634661       -1.6058462915       -2.0503820824
 H         -4.6346000817       -1.5635400231       -0.1048933613
 H         -4.3210316047       -0.3890126907       -1.3875668263
 H         -4.5383612184        0.1590946939        0.2775296208
