  28
        -34.50275938
 C          3.0959863946        1.7893668217        1.0192810490
 C          3.4211945600        0.8985102751       -0.1668161946
 C          3.0046234293        1.5356840272       -1.4809457271
 C          4.8808207096        0.4814254185       -0.1782464277
 Br         2.3421134682       -0.7735254943        0.0430932499
 H          3.3450315309        1.2964790230        1.9574060556
 H          2.0382579600        2.0466567742        1.0352382608
 H          3.6731120609        2.7106580657        0.9505016587
 H          3.5793449447        2.4471465900       -1.6408576227
 H          1.9469873303        1.7936169148       -1.4712474248
 H          3.1876828805        0.8624157967       -2.3165747185
 H          5.5108203574        1.3630742983       -0.2911197486
 H          5.0861224537       -0.1960421981       -1.0055192766
 H          5.1508133242       -0.0173597082        0.7511283057
 C         -1.7340001244       -1.7658929367        0.1971998904
 C         -1.8800247510       -0.2612876306        0.0680841208
 C         -1.2825121124        0.4620767167        1.2612297655
 C         -1.3097062694        0.2442981400       -1.2444838581
 Br        -3.8463820670        0.1526455282        0.0531764243
 H         -2.1858217601       -2.1221771629        1.1207756073
 H         -0.6748845004       -2.0219697739        0.2062763525
 H         -2.2081261600       -2.2757343158       -0.6390650057
 H         -0.2194531421        0.2349549264        1.3183169728
 H         -1.7527259486        0.1368454974        2.1871340753
 H         -1.4116593828        1.5392261685        1.1693312843
 H         -1.7993743252       -0.2341850447       -2.0902089298
 H         -0.2479192544        0.0079899148       -1.2844080803
 H         -1.4383533396        1.3215452603       -1.3364031332
