  28
        -34.50288242
 C          1.1711570371       -0.0415502954        1.4374943264
 C          1.8612210907        0.1383136096        0.0977017678
 C          1.2442433543       -0.7350800495       -0.9796540001
 C          1.8972711482        1.5965506371       -0.3197742222
 Br         3.7631759518       -0.4691584529        0.3273822495
 H          0.1433085718        0.3076691941        1.3583274658
 H          1.6713056826        0.5375218972        2.2111170760
 H          1.1685782055       -1.0878241516        1.7384931710
 H          0.2194032723       -0.4122355028       -1.1537709495
 H          1.2428793585       -1.7819693021       -0.6801040100
 H          1.7949188348       -0.6453913905       -1.9139630041
 H          0.8770136081        1.9554756283       -0.4522189294
 H          2.4340685361        1.7194770740       -1.2583521824
 H          2.3839375125        2.2058385911        0.4391107047
 C         -2.6437276278       -1.5463560643        0.9118674288
 C         -3.3681286652       -0.6795341040       -0.1033467104
 C         -3.4352000484       -1.3443741470       -1.4668882458
 C         -4.7411061758       -0.2587835585        0.3891575075
 Br        -2.2923548389        0.9957735051       -0.3211563401
 H         -3.2060636022       -2.4656976557        1.0702939684
 H         -2.5488646183       -1.0325859033        1.8669258158
 H         -1.6476594056       -1.8084956826        0.5598824792
 H         -4.0170791844       -2.2623824992       -1.3949867616
 H         -2.4395047339       -1.5962101872       -1.8280207354
 H         -3.9111024474       -0.6915164870       -2.1964378956
 H         -5.3669912159       -1.1408855026        0.5195486460
 H         -5.2257936645        0.4038481656       -0.3259364871
 H         -4.6707718063        0.2576094612        1.3450410958
