  28
        -34.50289371
 C          4.2340938893        1.3758820473        1.4394940375
 C          3.7307700245        0.8240227062        0.1176165300
 C          3.1652529245        1.9169083717       -0.7727466092
 C          4.7928776068        0.0066007849       -0.5956285748
 Br         2.2267827966       -0.4182451151        0.5401823015
 H          5.0600303492        2.0623384014        1.2563825224
 H          4.5891907220        0.5755595542        2.0867057600
 H          3.4463569053        1.9168217278        1.9614106133
 H          3.9548698698        2.6220671622       -1.0293896299
 H          2.3699388252        2.4603856267       -0.2653267599
 H          2.7634689140        1.4997692646       -1.6946746002
 H          5.1530907920       -0.8026858206        0.0375104195
 H          5.6369034585        0.6476079648       -0.8480058820
 H          4.4009056022       -0.4241961628       -1.5155976267
 C         -1.6015948326        0.8830641325        0.7660237807
 C         -1.9725536792       -0.2679679790       -0.1503498599
 C         -1.2673285422       -0.1715783017       -1.4904823212
 C         -1.7307250811       -1.6106455852        0.5131545904
 Br        -3.9429984425       -0.1241870622       -0.5085295555
 H         -0.5403089492        0.8203873888        0.9991049323
 H         -2.1630395609        0.8347335364        1.6968431762
 H         -1.8033060173        1.8408423859        0.2900953692
 H         -0.1941307720       -0.2606321237       -1.3318124620
 H         -1.4749925120        0.7817796667       -1.9729852850
 H         -1.5861631720       -0.9719178175       -2.1552357251
 H         -0.6664521551       -1.7173142583        0.7217253260
 H         -2.0421958491       -2.4268121739       -0.1357274855
 H         -2.2785800460       -1.6855947023        1.4502643736
