  28
        -34.50289057
 C          3.4021698666        2.1488525774       -0.7777641736
 C          3.3734312443        0.7547070608       -0.1767852981
 C          4.7306439822        0.0784987193       -0.2505760764
 C          2.8210855147        0.7614337687        1.2380760229
 Br         2.1198729122       -0.3368626220       -1.2933486064
 H          4.0806106947        2.7783593756       -0.2032486662
 H          2.4126822313        2.6025874309       -0.7584446740
 H          3.7484333456        2.1218966057       -1.8094886480
 H          5.4500423019        0.6402620574        0.3441587385
 H          5.0907023538        0.0376894073       -1.2772386256
 H          4.6814144567       -0.9372867262        0.1381335774
 H          3.4799647414        1.3430750888        1.8815133121
 H          2.7562305766       -0.2495212629        1.6365936644
 H          1.8292209514        1.2087052139        1.2671879870
 C         -0.9167614539       -1.0252866534        1.2379707144
 C         -1.8312998092       -0.2723405320        0.2892467654
 C         -1.3483240209        1.1453328599        0.0422355876
 C         -2.0302548411       -1.0281595311       -1.0111900399
 Br        -3.6248848548       -0.1334110364        1.1850825543
 H          0.0584890646       -1.1466154828        0.7703316370
 H         -1.3165902677       -2.0128810622        1.4587068915
 H         -0.7960742122       -0.4850953411        2.1754222379
 H         -0.3904223888        1.1086288926       -0.4734236628
 H         -1.2285115546        1.6856658716        0.9799341024
 H         -2.0525866477        1.6916449471       -0.5819941260
 H         -2.4218551907       -2.0260702294       -0.8246395553
 H         -1.0716135043       -1.1204885431       -1.5208343191
 H         -2.7226968552       -0.5016994663       -1.6649922784
