%nprocshared=4
%mem=8000mb
%chk=19.chk
%mem=8000mb
#T wB97XD/def2svpp opt=tight freq int(grid=ultrafine) scf=(verytight,qc)

comment

1 2
C       -0.804217   -0.893311   -1.257622
C       -0.778501   -0.015528   -0.000000
C       -2.000704    0.918102    0.000016
C       -0.804224   -0.893366    1.257584
C        0.459469    0.892412    0.000022
Cl        2.027884    0.007768    0.000000
H       -1.716572   -1.515050   -1.274894
H        0.069787   -1.564830   -1.291956
H       -0.796627   -0.276240   -2.174308
H       -2.933565    0.327641    0.000001
H       -2.013513    1.566758   -0.894313
H       -2.013518    1.566720    0.894374
H        0.069781   -1.564884    1.291896
H       -1.716577   -1.515108    1.274822
H       -0.796643   -0.276334    2.174297
H        0.471240    1.534684    0.894389
H        0.471241    1.534727   -0.894315


