%nprocshared=4
%mem=8000mb
%chk=33.chk
%mem=8000mb
#T wB97XD/def2svpp opt=tight freq int(grid=ultrafine) scf=(verytight,qc)

comment

1 2
C       -2.247896    0.380954   -0.034361
C       -1.128008   -0.408097   -0.704909
C        0.245372   -0.392935   -0.003918
C        0.142056   -0.856653    1.453578
C        1.217997   -1.295330   -0.768949
S        0.932730    1.325848    0.073618
H       -2.525656   -0.050097    0.942592
H       -3.152097    0.373635   -0.666413
H       -1.948232    1.430132    0.126892
H       -0.989009   -0.040088   -1.738593
H       -1.435249   -1.467926   -0.800272
H       -0.322287   -1.858679    1.492148
H       -0.471478   -0.172279    2.062966
H        1.140950   -0.923364    1.917668
H        0.853481   -2.339503   -0.764258
H        2.221349   -1.274158   -0.312269
H        1.313551   -0.977520   -1.822247
H        1.013878    1.518637   -1.264750


