  52
        -52.64536031
 C          1.5402206550       -2.5413539936        0.0431365746
 C          2.8573900609       -1.7744497565       -0.0120170291
 C          2.7557679246       -0.2537378197       -0.2585693795
 C          2.1814819776       -0.0012395382       -1.6573050543
 C          1.8325745391        0.4327549617        0.7629230730
 C          2.2385265347        0.2897585677        2.2255067813
 C          4.1975529052        0.2934154080       -0.1884731784
 C          4.3537423442        1.8044570539       -0.3248093548
 H          1.7449659017       -3.6014997347        0.1803671620
 H          0.9751829334       -2.4277088338       -0.8779604474
 H          0.9230321515       -2.2121362791        0.8747618966
 H          3.4699953544       -2.2005736140       -0.8108983997
 H          3.3939380680       -1.9430170958        0.9241006096
 H          2.1234352570        1.0640855861       -1.8645344723
 H          1.1764706687       -0.4058682148       -1.7429858117
 H          2.8057660777       -0.4664085559       -2.4172131699
 H          0.8270100956        0.0277503719        0.6397903827
 H          1.7754078573        1.4947838216        0.5156025868
 H          2.2644595321       -0.7537164506        2.5277980088
 H          1.5158573865        0.8036148005        2.8569895256
 H          3.2165042419        0.7264526793        2.4093045511
 H          4.7747990411       -0.1858353951       -0.9835826634
 H          4.6442267328       -0.0152631205        0.7590698813
 H          3.9423967430        2.1633869480       -1.2643404892
 H          5.4111055075        2.0615410515       -0.3030501773
 H          3.8656171836        2.3296140635        0.4916955477
 C         -2.5982361514       -2.3589452339       -0.5142489953
 C         -2.0677342839       -0.9692753800       -0.8501258025
 C         -2.9185648642        0.2251567454       -0.3695195019
 C         -4.2608953079        0.2234088832       -1.1095692207
 C         -3.2093785357        0.1515654729        1.1400147339
 C         -1.9851662835        0.1321915683        2.0490518124
 C         -2.1284079420        1.4980437655       -0.7423912887
 C         -2.7371236191        2.8238458885       -0.2977585442
 H         -1.9331126021       -3.1111638723       -0.9344848989
 H         -3.5888858697       -2.5183257276       -0.9313648383
 H         -2.6437249802       -2.5176762232        0.5596800436
 H         -1.9664726587       -0.8911838277       -1.9361224747
 H         -1.0655896402       -0.8741652955       -0.4287936294
 H         -4.8726138699        1.0678468958       -0.8032676636
 H         -4.8205424798       -0.6825476658       -0.8921894804
 H         -4.1056717131        0.2824865949       -2.1847987237
 H         -3.8036356925       -0.7438869383        1.3323524762
 H         -3.8338488590        1.0049982006        1.4108680221
 H         -2.3029908434        0.0977753898        3.0896504116
 H         -1.3773807006        1.0226326431        1.9129594238
 H         -1.3668328108       -0.7413830543        1.8604910355
 H         -2.0201183104        1.5158709818       -1.8301349834
 H         -1.1223958788        1.4242233749       -0.3246753072
 H         -2.1166615353        3.6437414839       -0.6546232590
 H         -2.7908538520        2.8926940214        0.7853459149
 H         -3.7355352250        2.9596728956       -0.7046138262
