  52
        -52.64535442
 C          2.9038102003       -2.7624089154       -0.8070966073
 C          2.3057427863       -1.3929108937       -1.1117633266
 C          2.5594702848       -0.2893274742       -0.0625057043
 C          1.8562047873       -0.6647766002        1.2465454081
 C          4.0588358560       -0.1141830234        0.2366951861
 C          4.9303762922        0.2645813779       -0.9559847241
 C          1.9346879997        1.0020135090       -0.6319692128
 C          2.1123770454        2.2664365850        0.2020493412
 H          2.6240733433       -3.4618784018       -1.5926789482
 H          2.5349862575       -3.1554395769        0.1363999122
 H          3.9889201624       -2.7223363734       -0.7665827484
 H          1.2239509879       -1.5072867525       -1.2203118317
 H          2.6888453903       -1.0556456256       -2.0772197844
 H          1.9740873451        0.1200900331        1.9889931312
 H          2.2788447837       -1.5751162649        1.6635360769
 H          0.7940482818       -0.8234615260        1.0775305706
 H          4.4349962835       -1.0455071934        0.6643241569
 H          4.1676450289        0.6504388070        1.0083637750
 H          4.8879151546       -0.4940427772       -1.7329637719
 H          5.9663982625        0.3600797746       -0.6359002901
 H          4.6230534028        1.2147500849       -1.3846498682
 H          0.8644773217        0.8240574945       -0.7624220416
 H          2.3481546988        1.1840391415       -1.6261172718
 H          1.6956698600        2.1487020603        1.1991067161
 H          1.5958921806        3.0937783433       -0.2818715875
 H          3.1605489307        2.5370100015        0.2953071647
 C         -3.9568332572       -1.4149862042        1.9519022704
 C         -4.0811563491       -0.1407614099        1.1227778735
 C         -2.7739422998        0.4016468254        0.5065351830
 C         -1.8262940392        0.8410851978        1.6284278599
 C         -2.0547549399       -0.6659016143       -0.3367506180
 C         -2.8494998081       -1.2291727815       -1.5097841624
 C         -3.1679958394        1.6318088562       -0.3389370168
 C         -2.0427447988        2.3034456053       -1.1196505226
 H         -3.6191341914       -2.2518189085        1.3465308071
 H         -4.9297017815       -1.6730427588        2.3659574878
 H         -3.2658377072       -1.2841454815        2.7802971249
 H         -4.5009710434        0.6439449678        1.7576427640
 H         -4.8003446032       -0.3193779073        0.3206322548
 H         -2.3017171830        1.5901496543        2.2581902236
 H         -0.9137511751        1.2657216486        1.2196470538
 H         -1.5458347289       -0.0035551747        2.2525050562
 H         -1.7681527374       -1.4894653053        0.3207257802
 H         -1.1290704387       -0.2327688031       -0.7207143853
 H         -3.7596679359       -1.7178843824       -1.1727870535
 H         -2.2478015303       -1.9668299637       -2.0380844018
 H         -3.1183119040       -0.4479456602       -2.2157569361
 H         -3.6078269743        2.3712719829        0.3354517063
 H         -3.9499319517        1.3390611196       -1.0428542082
 H         -1.2430204091        2.6316610120       -0.4614365500
 H         -2.4332360331        3.1799164451       -1.6334057641
 H         -1.6252279593        1.6368499197       -1.8695753422
