  52
        -52.64538319
 C          1.4765093144       -1.4666689637       -1.8082462098
 C          1.7523771085       -0.0408977436       -1.3419037215
 C          2.6055287313        0.1089881139       -0.0642374767
 C          1.8314977518       -0.4495082733        1.1350735136
 C          3.9348428426       -0.6586541143       -0.1716068261
 C          4.8507244101       -0.2347924342       -1.3148490337
 C          2.8289585700        1.6235260437        0.1336165552
 C          3.7149928355        2.0255593182        1.3080148666
 H          0.8175777477       -1.4421876002       -2.6745291278
 H          0.9898901052       -2.0536170120       -1.0337229429
 H          2.3924834820       -1.9725860178       -2.1008364668
 H          0.7954398863        0.4555446481       -1.1620576088
 H          2.2399956961        0.4988327045       -2.1564868121
 H          1.6048379982       -1.5028455524        0.9935435421
 H          0.8964607231        0.0884346203        1.2708940425
 H          2.4162132688       -0.3600129348        2.0468517488
 H          3.7093151681       -1.7215880658       -0.2769952229
 H          4.4746489885       -0.5453903255        0.7704972972
 H          4.3691264778       -0.3719147266       -2.2793417249
 H          5.7554712139       -0.8399520233       -1.3018663911
 H          5.1432334584        0.8076237000       -1.2209392820
 H          1.8494113114        2.0908417123        0.2664560720
 H          3.2580682972        2.0386409112       -0.7808007301
 H          3.7659051830        3.1111413826        1.3672982229
 H          4.7274928235        1.6497308271        1.1885564281
 H          3.3163830880        1.6581173893        2.2496833464
 C         -3.8093523601       -0.2659989220        2.7069793399
 C         -4.0801573709        0.1050548476        1.2525101108
 C         -2.8429532311        0.2206093925        0.3366965274
 C         -1.9705675253        1.3901433372        0.8068663098
 C         -1.9851079031       -1.0562934594        0.3683013594
 C         -2.6881678503       -2.3358023992       -0.0717468847
 C         -3.3765393203        0.5181100212       -1.0810690827
 C         -2.3342397263        0.6006112484       -2.1916639840
 H         -4.7479911428       -0.2774050564        3.2577794279
 H         -3.1509003483        0.4541990350        3.1851010151
 H         -3.3622865305       -1.2530160540        2.7883993945
 H         -4.6010469687        1.0660520175        1.2330245053
 H         -4.7623753042       -0.6349321533        0.8288495028
 H         -1.1126399412        1.5204366089        0.1521684143
 H         -1.5950140852        1.2137032154        1.8116580150
 H         -2.5409584295        2.3166153020        0.8111029388
 H         -1.6091363851       -1.1940051205        1.3840366660
 H         -1.1153472100       -0.8995775306       -0.2702889680
 H         -3.0377002297       -2.2619222664       -1.0980567403
 H         -3.5382329117       -2.5612777697        0.5666759842
 H         -1.9937868175       -3.1722726398       -0.0135236500
 H         -3.9151856773        1.4686977780       -1.0424606168
 H         -4.1055322667       -0.2494475156       -1.3491295892
 H         -1.8125290660       -0.3439895511       -2.3179284562
 H         -1.6020463311        1.3789908947       -1.9939433944
 H         -2.8270209753        0.8394878731       -3.1322657766
