  52
        -52.64545757
 C          1.4890175043       -2.4010733397        0.3993410277
 C          1.7284264187       -0.9534245607        0.8150883458
 C          2.9211097093       -0.2365388735        0.1477493529
 C          4.2283636504       -0.8901222115        0.6098811285
 C          2.8614455316       -0.3281917559       -1.3873589370
 C          1.6206416498        0.2738136839       -2.0381915501
 C          2.8769746471        1.2265651452        0.6381806406
 C          3.9338220507        2.1627699586        0.0615355727
 H          0.6614822812       -2.8115645046        0.9755871158
 H          2.3628775027       -3.0187587219        0.5879600427
 H          1.2322650025       -2.4752518146       -0.6540777740
 H          1.8843380547       -0.9259500913        1.8968430301
 H          0.8210049038       -0.3816805035        0.6114949299
 H          5.0871398713       -0.3964389399        0.1628741723
 H          4.2619210193       -1.9358510133        0.3157420047
 H          4.3231876599       -0.8339811187        1.6922572716
 H          2.9318254565       -1.3799226049       -1.6716019518
 H          3.7459923826        0.1653947770       -1.7945194620
 H          0.7163210822       -0.2290336923       -1.7077177436
 H          1.6878627682        0.1671175178       -3.1194673688
 H          1.5284944702        1.3325419918       -1.8112069094
 H          2.9816452217        1.2166985301        1.7264112255
 H          1.8915569433        1.6425179035        0.4172416938
 H          4.9382743431        1.8071441711        0.2743448269
 H          3.8265011885        3.1487716487        0.5097315583
 H          3.8236772879        2.2708451645       -1.0140462807
 C         -3.0205529268       -2.3462996355       -0.6431053499
 C         -2.2274078361       -1.0518250396       -0.7884358060
 C         -2.8684279666        0.2162388605       -0.1850131446
 C         -4.1600755814        0.5426723482       -0.9429502755
 C         -3.2233014642        0.0257096790        1.3004313870
 C         -2.0542936131       -0.3063527522        2.2219231339
 C         -1.8514355399        1.3592547584       -0.3899929587
 C         -2.2364870963        2.7185787484        0.1840775942
 H         -2.4845844907       -3.1547181597       -1.1370153864
 H         -4.0018279178       -2.2666909192       -1.1029712661
 H         -3.1470247680       -2.6189161346        0.4011419112
 H         -2.0612631911       -0.8671118540       -1.8533511370
 H         -1.2477110614       -1.2010392898       -0.3317022916
 H         -4.6190622467        1.4472856269       -0.5530945205
 H         -4.8828439886       -0.2621871346       -0.8389973900
 H         -3.9561926870        0.6882213374       -2.0016988426
 H         -3.9670018891       -0.7698830679        1.3761688935
 H         -3.7043883049        0.9379046589        1.6586311175
 H         -2.4160222052       -0.4273388851        3.2414287731
 H         -1.3121109064        0.4874868879        2.2225773090
 H         -1.5681734547       -1.2322342397        1.9268800577
 H         -1.6868921269        1.4722865542       -1.4648746263
 H         -0.8966622640        1.0620283098        0.0482697500
 H         -1.4580838921        3.4426728857       -0.0496938353
 H         -2.3410561190        2.6779663307        1.2649283717
 H         -3.1678140377        3.0813472413       -0.2421364629
