  52
        -52.64539449
 C          1.2275382475        0.5035667053        2.3166744843
 C          2.6792983050        0.4159551793        1.8570334353
 C          2.9107355746       -0.0491175701        0.4031667889
 C          2.4532694170       -1.5048006999        0.2560648820
 C          2.1182817615        0.8009745017       -0.6048326358
 C          2.4219146760        2.2951531341       -0.5948780284
 C          4.4320683889        0.0379614705        0.1564482845
 C          4.9075782648       -0.3043449749       -1.2517841123
 H          1.1979005394        0.7955329691        3.3649201873
 H          0.7224679995       -0.4543135215        2.2240171800
 H          0.6760399180        1.2476302083        1.7483121371
 H          3.2079322564       -0.2775580028        2.5163270484
 H          3.1420797503        1.3961471692        1.9899318604
 H          1.3910290171       -1.6000185884        0.4642705560
 H          2.9977127152       -2.1487372106        0.9435178738
 H          2.6223093852       -1.8623835999       -0.7563438167
 H          1.0550425850        0.6576081156       -0.4090393744
 H          2.3052610822        0.4106656535       -1.6070208942
 H          2.1979920846        2.7381531351        0.3719213891
 H          1.8112022406        2.7972392244       -1.3433758530
 H          3.4653319090        2.4882889059       -0.8292436931
 H          4.9232907887       -0.6390690530        0.8603382564
 H          4.7698754026        1.0479143392        0.3982905160
 H          5.9940467259       -0.2521293255       -1.2889681480
 H          4.5145027460        0.3950553382       -1.9846698732
 H          4.6120506906       -1.3102145484       -1.5376011810
 C         -4.3805531539       -2.4134307170       -0.5893984835
 C         -4.2354711048       -0.9110852623       -0.8088063017
 C         -3.0899902060       -0.2169819459       -0.0418416306
 C         -3.3563664553       -0.3065085248        1.4651953028
 C         -1.7295826178       -0.8786598074       -0.3209037254
 C         -1.2824072221       -0.8853014436       -1.7785882943
 C         -3.1102568824        1.2643513329       -0.4769720394
 C         -1.9890118798        2.1448340772        0.0652760107
 H         -5.2361529572       -2.7799590536       -1.1534014920
 H         -4.5466601601       -2.6477079616        0.4585768824
 H         -3.5003384816       -2.9513944939       -0.9307707547
 H         -5.1721436091       -0.4281167617       -0.5181334703
 H         -4.1023927805       -0.7298788952       -1.8774461647
 H         -2.5844333613        0.2140357490        2.0261466836
 H         -3.3597377804       -1.3416711277        1.7963224191
 H         -4.3188213645        0.1368862200        1.7113349074
 H         -1.7669033091       -1.9088052961        0.0394368264
 H         -0.9757268733       -0.3650235570        0.2777916678
 H         -1.1941272282        0.1246074341       -2.1700298353
 H         -1.9803763399       -1.4368677961       -2.4027334501
 H         -0.3079642338       -1.3634462583       -1.8596451097
 H         -4.0662300175        1.6896448980       -0.1603478603
 H         -3.0871382544        1.3112200995       -1.5678513422
 H         -1.0213231088        1.8374231271       -0.3213607021
 H         -1.9548393166        2.1227061227        1.1513407556
 H         -2.1572085577        3.1751327502       -0.2427500792
