  52
        -52.64536212
 C          4.7663942808       -1.0694054025       -1.5075497346
 C          4.3482610793       -0.7617683459       -0.0733498911
 C          3.0281981464        0.0192947011        0.1005237669
 C          3.1902859762        1.4279783447       -0.4819761611
 C          1.8579641685       -0.6627181578       -0.6289027476
 C          1.5342746289       -2.0822505809       -0.1759314759
 C          2.7783861948        0.1189700784        1.6206667513
 C          1.4755329986        0.7866499379        2.0485878521
 H          5.7272165593       -1.5806317244       -1.5019293170
 H          4.8754646479       -0.1607801908       -2.0935266727
 H          4.0465807031       -1.7168048751       -2.0009485701
 H          5.1437892548       -0.1810076864        0.4008713773
 H          4.2736487549       -1.7040939325        0.4735545890
 H          3.3949194338        1.3842253717       -1.5485260603
 H          4.0102274577        1.9518192355        0.0046560189
 H          2.2825345893        2.0101736256       -0.3457773030
 H          2.0778779944       -0.6759249470       -1.6982246867
 H          0.9698829632       -0.0416666606       -0.5001444169
 H          2.3864654227       -2.7432985453       -0.3084786779
 H          0.7100041872       -2.4774521396       -0.7675263488
 H          1.2388376386       -2.1058424095        0.8697452954
 H          3.6116394096        0.6748374160        2.0586889860
 H          2.8070586879       -0.8857360261        2.0476657274
 H          1.3991756707        1.7977597148        1.6578685947
 H          1.4403018881        0.8453182918        3.1349314197
 H          0.6110037783        0.2195291480        1.7163114140
 C         -4.2390048346        1.1696736986        1.9328319705
 C         -4.1699933857        0.9680364469        0.4225261347
 C         -2.7838634303        0.6081463387       -0.1532824828
 C         -1.8227652276        1.7820543321        0.0660199084
 C         -2.1859080755       -0.6333982007        0.5313419552
 C         -3.0109853638       -1.9110590521        0.4222105836
 C         -2.9843341633        0.3877120272       -1.6681637588
 C         -1.7591028079       -0.0698341264       -2.4532859149
 H         -5.2505575974        1.4570700441        2.2133950039
 H         -3.5653372065        1.9572559703        2.2593801541
 H         -3.9910738545        0.2565819395        2.4671909934
 H         -4.5049159965        1.8880755534       -0.0638228313
 H         -4.8795669877        0.1855945504        0.1454464413
 H         -0.8561770602        1.5808142725       -0.3880459805
 H         -1.6577054781        1.9556505922        1.1261856198
 H         -2.2240818524        2.6923173875       -0.3745247455
 H         -2.0333884600       -0.4038021150        1.5879768259
 H         -1.2005141838       -0.8199367332        0.1027835057
 H         -3.1552098522       -2.2006353704       -0.6152704467
 H         -3.9866376543       -1.7939819934        0.8862703383
 H         -2.4931032382       -2.7236401005        0.9288442128
 H         -3.3368764839        1.3291082535       -2.0978513179
 H         -3.7803821236       -0.3456192726       -1.8135211965
 H         -1.4095975234       -1.0413425376       -2.1151034908
 H         -0.9420914559        0.6414652280       -2.3685219787
 H         -2.0175536724       -0.1558918163       -3.5070350832
