  52
        -52.64536385
 C          1.1766808350        0.2730697673        2.2981004684
 C          2.6404275733        0.2702217498        1.8694310902
 C          2.9198648986       -0.0552494099        0.3863329775
 C          2.5094483584       -1.5035855952        0.0969183327
 C          2.1269161552        0.8598955647       -0.5625985826
 C          2.3815258277        2.3551461313       -0.4069449789
 C          4.4435126156        0.0955869466        0.1890421874
 C          4.9624055066       -0.0961634676       -1.2323311299
 H          1.1136972877        0.4726451910        3.3663540969
 H          0.7055468939       -0.6882621115        2.1112092259
 H          0.6143629080        1.0462601269        1.7813591251
 H          3.1757388941       -0.4637226555        2.4775853954
 H          3.0686860151        1.2477976657        2.1007872364
 H          2.7149442815       -1.7635023099       -0.9382937648
 H          1.4453970338       -1.6455284450        0.2658026643
 H          3.0546863937       -2.1920459855        0.7390804221
 H          1.0639217122        0.6668990972       -0.4123411359
 H          2.3530395003        0.5691837419       -1.5902238152
 H          3.4250898559        2.5991516376       -0.5868636035
 H          2.1132244083        2.7008615845        0.5878149947
 H          1.7787522772        2.9059258948       -1.1270656170
 H          4.9371126070       -0.6330509972        0.8375378754
 H          4.7462773191        1.0860099924        0.5355162397
 H          4.6990287468       -1.0753164423       -1.6230872852
 H          6.0478468230       -0.0164650893       -1.2344177946
 H          4.5707720477        0.6631114884       -1.9038184487
 C         -4.3918182609       -2.4207638135       -0.4812260255
 C         -4.2575404535       -0.9250143505       -0.7477837660
 C         -3.0805616704       -0.2100725630       -0.0505623876
 C         -3.2871471283       -0.2486417870        1.4679736507
 C         -1.7340465610       -0.8861047784       -0.3609077449
 C         -1.3361152673       -0.9293277856       -1.8321815219
 C         -3.1141419769        1.2556018612       -0.5345191077
 C         -1.9819797517        2.1548294977       -0.0487002282
 H         -5.2774446575       -2.7998938045       -0.9875982290
 H         -4.5004981245       -2.6271802387        0.5800678399
 H         -3.5322286003       -2.9697442870       -0.8560866874
 H         -5.1811047025       -0.4339109577       -0.4300886795
 H         -4.1712686747       -0.7735574977       -1.8258458984
 H         -2.4863146789        0.2774526249        1.9810875511
 H         -3.2907329741       -1.2727555039        1.8317343767
 H         -4.2330828887        0.2159463627        1.7379572483
 H         -1.7644774884       -1.9070700724        0.0251960083
 H         -0.9573145306       -0.3631448481        0.1987879162
 H         -2.0639171510       -1.4800872754       -2.4220480543
 H         -0.3731664003       -1.4262876457       -1.9358264294
 H         -1.2428235129        0.0710955207       -2.2462264145
 H         -4.0630436432        1.6907005902       -0.2099249226
 H         -3.1170114890        1.2652698386       -1.6265667428
 H         -1.9325176228        2.1815535111        1.0366476545
 H         -2.1514274737        3.1709276977       -0.4001423994
 H         -1.0207952800        1.8267189936       -0.4344179995
