  52
        -52.64535276
 C          3.8918876258       -3.0598322477        0.7661298823
 C          4.0728573429       -1.5470614651        0.6951958945
 C          3.0011534170       -0.7683901837       -0.0967106261
 C          3.0584365204       -1.1785164001       -1.5727943507
 C          1.5815940366       -1.0592685760        0.4194393644
 C          1.3230948419       -0.7107546694        1.8810732534
 C          3.3646780103        0.7266770326        0.0322262692
 C          2.3743121220        1.7175457952       -0.5710501324
 H          4.7227865140       -3.4977225283        1.3160478487
 H          3.8762339538       -3.5050541246       -0.2249683564
 H          2.9730365416       -3.3259630831        1.2815583124
 H          5.0435261662       -1.3367327607        0.2383663908
 H          4.1094344264       -1.1560228758        1.7141595997
 H          2.8125168711       -2.2305156866       -1.6916300222
 H          4.0532675935       -1.0094759917       -1.9793068776
 H          2.3453023909       -0.6067891480       -2.1611393514
 H          1.3703479543       -2.1200311063        0.2691541504
 H          0.8768327380       -0.5074022497       -0.2045755306
 H          1.9701425533       -1.2801080407        2.5429692480
 H          0.2910323270       -0.9454802417        2.1349655315
 H          1.4829192436        0.3474458374        2.0698338895
 H          4.3359092331        0.8743933985       -0.4471910666
 H          3.4918824371        0.9683076252        1.0896671583
 H          2.1927224458        1.5094492303       -1.6221770832
 H          2.7788664939        2.7250946251       -0.4947074412
 H          1.4250563981        1.7005104574       -0.0424112270
 C         -1.2473272108        0.5822481282       -2.2755527080
 C         -2.6754371842        0.7086944908       -1.7550781183
 C         -2.8875288542        0.4070348383       -0.2558507211
 C         -2.5938328951       -1.0734735001        0.0117811342
 C         -1.9548979350        1.2449996054        0.6359665562
 C         -2.0929917034        2.7575208335        0.5012187770
 C         -4.3752803922        0.6954900778        0.0382023727
 C         -4.8197301908        0.5351677095        1.4884048253
 H         -0.5873235299        1.3035886229       -1.8014759036
 H         -1.2354287450        0.7733886151       -3.3471373493
 H         -0.8514992519       -0.4166134369       -2.1115866968
 H         -3.3113803842        0.0261624586       -2.3249979278
 H         -3.0290445120        1.7208133895       -1.9629357138
 H         -1.5614033131       -1.3134698423       -0.2268211353
 H         -3.2422880931       -1.7071328745       -0.5895939079
 H         -2.7524750089       -1.3155296737        1.0594320558
 H         -0.9247706252        0.9656567977        0.4109698495
 H         -2.1324412967        0.9673236532        1.6767091545
 H         -3.0948097691        3.0880454285        0.7621578684
 H         -1.8743134869        3.0862068391       -0.5113279959
 H         -1.3916076990        3.2497148280        1.1728146507
 H         -4.9739993382        0.0231035700       -0.5819537075
 H         -4.6059428616        1.7135345207       -0.2826324033
 H         -4.3114606966        1.2407976488        2.1399579242
 H         -4.6324630266       -0.4714165766        1.8524407271
 H         -5.8892702853        0.7231226898        1.5613729869
