  52
        -52.64539169
 C          3.9227581241       -3.0659269341        0.7467840502
 C          4.0711150520       -1.5481608510        0.7204644990
 C          3.0022202801       -0.7714078755       -0.0773889660
 C          3.1152731763       -1.1289589786       -1.5638657476
 C          1.5766039478       -1.1185421053        0.3846432022
 C          1.2633637893       -0.8223607995        1.8471809590
 C          3.3208295209        0.7272210567        0.1135271774
 C          2.3320570841        1.7126830870       -0.5009286068
 H          4.7539615648       -3.5006558134        1.2987202220
 H          3.9334185183       -3.4839680375       -0.2561507776
 H          3.0017102232       -3.3663159496        1.2389080512
 H          5.0477632576       -1.3043626054        0.2940918995
 H          4.0738347445       -1.1843461101        1.7501382104
 H          2.9152136318       -2.1852319263       -1.7236924474
 H          4.1129908368       -0.9073328105       -1.9367286808
 H          2.3952268528       -0.5666987948       -2.1528906389
 H          1.4021894600       -2.1798553659        0.1961006753
 H          0.8747634976       -0.5693225220       -0.2449684445
 H          1.9119710863       -1.3867523543        2.5117900869
 H          0.2338839345       -1.1015761176        2.0639526681
 H          1.3781209280        0.2350396698        2.0701360128
 H          4.3074705716        0.9141947087       -0.3184559601
 H          3.3966641132        0.9375513560        1.1824984438
 H          2.7033661420        2.7272635535       -0.3691275176
 H          1.3599099718        1.6507008060       -0.0197414418
 H          2.2067097229        1.5390835617       -1.5664050524
 C         -1.2680915521        0.4427397775       -2.2929475377
 C         -2.6824702679        0.6675781508       -1.7681402443
 C         -2.8998148373        0.4274153897       -0.2585681315
 C         -2.6902367281       -1.0582686808        0.0554709128
 C         -1.9124290084        1.2369536390        0.5997585203
 C         -1.9582493229        2.7496612056        0.4141469527
 C         -4.3655345817        0.8125019050        0.0350566892
 C         -4.8090389472        0.7185498115        1.4913476099
 H         -0.5647954320        1.1419809993       -1.8488980495
 H         -1.2544346038        0.5954591507       -3.3706496942
 H         -0.9274706487       -0.5704921130       -2.0964425803
 H         -3.3607886153        0.0045016928       -2.3115609652
 H         -2.9793269245        1.6910380178       -2.0069382881
 H         -1.6756047943       -1.3654625061       -0.1831890315
 H         -3.3800414036       -1.6723140239       -0.5196644173
 H         -2.8526775657       -1.2561811520        1.1117836697
 H         -0.9033508136        0.8866851285        0.3794325551
 H         -2.0990892087        1.0059854081        1.6502555862
 H         -1.7282812897        3.0298927082       -0.6103978052
 H         -1.2221890605        3.2200784805        1.0639486626
 H         -2.9355798087        3.1500426192        0.6701057929
 H         -5.0078006188        0.1609455463       -0.5634030787
 H         -4.5365063836        1.8335957806       -0.3123584885
 H         -4.2483114282        1.4027826750        2.1224357194
 H         -4.6892188519       -0.2896593913        1.8787408102
 H         -5.8624442013        0.9820487880        1.5656835060
