  52
        -52.64539470
 C          2.2656179725       -0.5323793277        2.2536895968
 C          3.3374266627       -0.4273779817        1.1735334284
 C          2.8384068716       -0.1447468926       -0.2596955798
 C          1.9941284403       -1.3278887121       -0.7467508649
 C          1.9662847514        1.1214061891       -0.3221763395
 C          2.6402663526        2.4114581868        0.1322476007
 C          4.0984017891       -0.0188381156       -1.1426123487
 C          3.8632413260        0.3514488361       -2.6035168963
 H          2.7374450832       -0.7477954172        3.2105840980
 H          1.5639491493       -1.3348595899        2.0419047761
 H          1.7117698632        0.3968124390        2.3555467394
 H          3.8989218991       -1.3652648964        1.1529834435
 H          4.0402632897        0.3575362223        1.4604839974
 H          1.1171108333       -1.4621258879       -0.1187258804
 H          2.5744539946       -2.2479518602       -0.7244655494
 H          1.6490129613       -1.1645295746       -1.7646471381
 H          1.0798128915        0.9575745299        0.2912086375
 H          1.6189541059        1.2499793232       -1.3492149894
 H          2.9526682254        2.3492217957        1.1712178186
 H          1.9400653452        3.2401609017        0.0419553068
 H          3.5107862055        2.6405760663       -0.4765741508
 H          4.6254745536       -0.9760408865       -1.1101312114
 H          4.7639377950        0.7256351234       -0.7007450464
 H          3.2173278028       -0.3693276192       -3.0974693461
 H          4.8151119633        0.3633529501       -3.1310027305
 H          3.4176880565        1.3380778376       -2.6963682174
 C         -3.5713139118       -2.1168010632       -1.4312264273
 C         -2.7291032559       -1.6873568715       -0.2345262568
 C         -2.5930059290       -0.1666090879       -0.0071782494
 C         -1.8310484372        0.4548226903       -1.1830466099
 C         -3.9642474203        0.5248582390        0.0898574319
 C         -4.8725830372        0.0337930339        1.2120542791
 C         -1.7712535974        0.0067788023        1.2878657166
 C         -1.5776683761        1.4372396295        1.7804639221
 H         -3.1785690018       -1.7099835616       -2.3590685026
 H         -4.6053012835       -1.8008960783       -1.3229574667
 H         -3.5596255405       -3.2022395061       -1.5105945251
 H         -1.7231417362       -2.0976145105       -0.3578174724
 H         -3.1500134485       -2.1417055808        0.6649094190
 H         -2.3950819794        0.3502440462       -2.1061890117
 H         -0.8659168969       -0.0289978835       -1.3119114139
 H         -1.6647087625        1.5162305015       -1.0195612605
 H         -4.4825434153        0.3964235321       -0.8623010435
 H         -3.7995247017        1.5968953146        0.2141761186
 H         -5.1065253736       -1.0213068784        1.0976675079
 H         -5.8085973253        0.5892476215        1.1942963331
 H         -4.4134345570        0.1812934876        2.1859084209
 H         -0.7869560161       -0.4365284319        1.1178920193
 H         -2.2440921500       -0.5706503633        2.0851376151
 H         -1.1042711946        2.0594484442        1.0254933643
 H         -0.9372908945        1.4324305520        2.6608772140
 H         -2.5239840968        1.8923197264        2.0596286838
