  52
        -52.64543759
 C          3.8617519151       -1.9820286863        1.7295881915
 C          4.0122290852       -1.1217576469        0.4790716117
 C          2.7152928421       -0.4984169210       -0.0794228220
 C          1.7814338963       -1.6129406273       -0.5647257829
 C          1.9669869541        0.3172563192        0.9890633286
 C          2.7405068647        1.4821347394        1.5967098439
 C          3.1340411453        0.3759961839       -1.2809108810
 C          2.0243234075        1.1791954284       -1.9519489272
 H          4.8303654433       -2.3973544634        2.0012924248
 H          3.1786055757       -2.8103338810        1.5621557947
 H          3.5006852512       -1.3984689516        2.5721527991
 H          4.4541085709       -1.7354408017       -0.3103703627
 H          4.7226699902       -0.3208686070        0.6945724527
 H          1.4807668583       -2.2532569413        0.2604429066
 H          2.2765383569       -2.2272792080       -1.3137970166
 H          0.8785041907       -1.1969410440       -1.0027485649
 H          1.6657203077       -0.3601387124        1.7908894556
 H          1.0495907445        0.7039208695        0.5425978967
 H          3.6382281395        1.1393836594        2.1042081323
 H          2.1154647801        1.9935920520        2.3267796220
 H          3.0284722238        2.2038564416        0.8370059658
 H          3.5840860266       -0.2814509175       -2.0294277230
 H          3.9135984568        1.0688597071       -0.9569501008
 H          1.2242611848        0.5347733875       -2.3055545441
 H          2.4314383482        1.7086591332       -2.8113693976
 H          1.6029502529        1.9177689494       -1.2753127124
 C         -4.1535520307       -1.3512726631       -1.6854836057
 C         -4.1476006350       -0.4523610702       -0.4532382454
 C         -2.7600998234       -0.0433659836        0.0854802342
 C         -2.0235204625       -1.2876343366        0.5943839768
 C         -1.8932063687        0.6094425331       -1.0050986093
 C         -2.4631750850        1.8746913561       -1.6366071866
 C         -3.0171319342        0.9169324815        1.2666591351
 C         -1.7831217116        1.5339010007        1.9173141136
 H         -5.1800318372       -1.6072710341       -1.9411539975
 H         -3.6139450188       -2.2769810523       -1.5046284687
 H         -3.7105129236       -0.8525012353       -2.5432613568
 H         -4.6791794196       -0.9670274134        0.3515115698
 H         -4.7160513050        0.4514251501       -0.6827083611
 H         -2.6086726072       -1.7915108378        1.3607877895
 H         -1.0596080123       -1.0196432701        1.0177370506
 H         -1.8422553426       -1.9890855051       -0.2158456899
 H         -1.7177725870       -0.1271863922       -1.7919566475
 H         -0.9198264497        0.8448457344       -0.5719077064
 H         -3.4121042118        1.6786671403       -2.1285641057
 H         -1.7684310114        2.2540889967       -2.3840444852
 H         -2.6146376524        2.6529707414       -0.8934525329
 H         -3.5688396609        0.3632690070        2.0309463705
 H         -3.6686903837        1.7250840069        0.9274788091
 H         -1.2440624621        2.1721008494        1.2223433399
 H         -1.1041362314        0.7706173766        2.2870963493
 H         -2.0895968711        2.1465842387        2.7631119146
