  52
        -52.64546394
 C          2.4478701823       -2.4657480404       -0.5269755318
 C          2.1837526195       -1.3040237750        0.4251982680
 C          3.0581411979       -0.0467957527        0.2324300722
 C          4.5101151142       -0.3794229552        0.5941427521
 C          3.0354404264        0.4528720621       -1.2230947710
 C          1.6630831999        0.8256897520       -1.7734488406
 C          2.5145566190        1.0139722741        1.2134335669
 C          3.1903293283        2.3805666538        1.1715508026
 H          2.2250330649       -2.1960557521       -1.5558065114
 H          1.8113652700       -3.3065189310       -0.2567291836
 H          3.4807614375       -2.7988284781       -0.4714552827
 H          2.3292196573       -1.6571677378        1.4495111808
 H          1.1349438130       -1.0164245490        0.3365280449
 H          5.1492316180        0.4908294685        0.4703410239
 H          4.8978495608       -1.1649222973       -0.0491852526
 H          4.5805353234       -0.7147527259        1.6267606849
 H          3.4697344862       -0.3213088192       -1.8586643100
 H          3.6910424144        1.3225731355       -1.2973890543
 H          0.9956183174       -0.0317803191       -1.7796459888
 H          1.7639436410        1.1786232098       -2.7984573929
 H          1.2047065590        1.6196612034       -1.1896118450
 H          2.6120352357        0.6120456514        2.2255762172
 H          1.4475680316        1.1520555937        1.0274839923
 H          4.2547380858        2.3042263843        1.3763222023
 H          2.7495063482        3.0248561739        1.9299754157
 H          3.0553594272        2.8605919885        0.2060819860
 C         -4.5273567602        1.5602849202        1.1466503668
 C         -4.2915828953        0.2088423900        0.4801130447
 C         -2.9664133728        0.0516565163       -0.2957440493
 C         -2.9597702552        1.0082724384       -1.4936383354
 C         -1.7459597903        0.3837740274        0.5800238716
 C         -1.5706628673       -0.4773898745        1.8261846401
 C         -2.9317043933       -1.4057616647       -0.8043289065
 C         -1.6608119319       -1.8407323082       -1.5267521669
 H         -5.5052968659        1.5615899552        1.6243266557
 H         -4.5091950500        2.3695966386        0.4217705940
 H         -3.7820019288        1.7614428500        1.9113327890
 H         -5.1110577024        0.0215514901       -0.2188237960
 H         -4.3436794963       -0.5673030159        1.2466037072
 H         -3.0054089392        2.0424300234       -1.1626139522
 H         -3.8119622953        0.8163081005       -2.1420396393
 H         -2.0501478740        0.8916844305       -2.0770837003
 H         -1.8144818355        1.4304511436        0.8832978193
 H         -0.8515899512        0.2963455576       -0.0389352289
 H         -2.4212051999       -0.3804335993        2.4956194050
 H         -0.6796239292       -0.1623059642        2.3666459094
 H         -1.4528924332       -1.5267185047        1.5689346192
 H         -3.7773894387       -1.5399933312       -1.4839364318
 H         -3.0937934662       -2.0775617311        0.0413391948
 H         -1.4472186514       -1.1991311658       -2.3776191699
 H         -1.7853640177       -2.8564039167       -1.8977140234
 H         -0.8034383773       -1.8347542796       -0.8595375775
