  52
        -52.64542298
 C          2.2151235184       -2.5214664528        0.9670197163
 C          1.9193588372       -1.0254260879        0.9728324410
 C          2.9266152927       -0.1242002200        0.2280278560
 C          4.2891327010       -0.1986604747        0.9260958607
 C          3.1156459767       -0.5655091128       -1.2342243628
 C          1.8552249237       -0.5638451288       -2.0929865238
 C          2.3788684352        1.3158717920        0.3272605102
 C          3.1695749250        2.3919322579       -0.4095301091
 H          1.4530515049       -3.0429644938        1.5436485275
 H          3.1797598001       -2.7386357048        1.4174464037
 H          2.2035799064       -2.9242934380       -0.0420983531
 H          1.8706832481       -0.6861689221        2.0110836024
 H          0.9292585920       -0.8716459374        0.5402266709
 H          5.0090707202        0.4541662399        0.4397419406
 H          4.6869715774       -1.2093477968        0.8900193850
 H          4.2018858168        0.1004866082        1.9685137596
 H          3.5410081159       -1.5709947708       -1.2373670344
 H          3.8571647847        0.0885570330       -1.6969495870
 H          1.4162521086        0.4285167570       -2.1500494336
 H          1.1082631049       -1.2491607584       -1.7015408011
 H          2.1028662659       -0.8799919633       -3.1047526686
 H          2.3350255395        1.5836637859        1.3864561698
 H          1.3537263332        1.3297248558       -0.0481131408
 H          4.1982474021        2.4385581226       -0.0624161456
 H          2.7119032504        3.3629253731       -0.2293870159
 H          3.1721070296        2.2177655233       -1.4821633350
 C         -4.4598207281       -0.4774265583       -1.8126017428
 C         -4.2341752476       -0.0095835155       -0.3785215136
 C         -2.7965626305       -0.1487703227        0.1663452132
 C         -2.4300989781       -1.6342786873        0.2616641938
 C         -1.7683945995        0.5350767916       -0.7511695004
 C         -1.9607000788        2.0326168440       -0.9631103388
 C         -2.8060644652        0.4692569845        1.5810400266
 C         -1.4663614611        0.5157199075        2.3088767161
 H         -3.8911579478        0.1206175486       -2.5195438092
 H         -5.5143554750       -0.3787183667       -2.0631578660
 H         -4.1832589992       -1.5207310567       -1.9384692006
 H         -4.8961995450       -0.5797740822        0.2785037162
 H         -4.5378277710        1.0368678905       -0.3052338684
 H         -3.1408090741       -2.1642432456        0.8922115523
 H         -1.4366155398       -1.7624025263        0.6833091018
 H         -2.4312356944       -2.0968856751       -0.7219252301
 H         -1.7861200341        0.0365018632       -1.7222902723
 H         -0.7749872696        0.3676080791       -0.3320663534
 H         -1.8904162695        2.5765909522       -0.0248865019
 H         -2.9250334825        2.2478412576       -1.4153808171
 H         -1.1862240873        2.4101010446       -1.6288350078
 H         -3.5089428924       -0.1052410411        2.1901963412
 H         -3.1989761897        1.4861099131        1.5164985613
 H         -1.0438533886       -0.4780016394        2.4287361597
 H         -1.6102119021        0.9388199000        3.3013200304
 H         -0.7473727141        1.1373597924        1.7825596286
