  44
        -56.24952291
 C          2.1606988875       -2.3032062583       -0.3972521670
 C          2.2519990858       -0.8853753344       -0.9525134245
 C          2.9948742258        0.1340158088       -0.0673355548
 C          4.5054892791       -0.0962712934       -0.1553977938
 C          2.6910518091        1.5546325511       -0.5912924829
 O          1.3397036695        1.9306229197       -0.4556928721
 C          2.5927937884        0.0523733353        1.4225662805
 O          1.2526375336        0.3865940184        1.6999141826
 H          1.7555748896       -2.9610840860       -1.1626250291
 H          1.4977657846       -2.3542648764        0.4624315997
 H          3.1392122512       -2.6824318547       -0.1122642777
 H          1.2429770491       -0.5239429760       -1.1502491265
 H          2.7701676377       -0.9163740394       -1.9144533491
 H          4.8433222044       -0.0015230511       -1.1846452550
 H          4.7627699884       -1.0897170059        0.2019497169
 H          5.0430736635        0.6311492201        0.4490169438
 H          2.9269441220        1.6199805052       -1.6573984981
 H          3.3243388071        2.2762979234       -0.0548396445
 H          1.0929868606        1.6598963139        0.4540439147
 H          3.1902715634        0.7808101150        1.9816991233
 H          2.8309868661       -0.9431667058        1.8131854588
 H          0.6532523702       -0.3180010251        1.3740412232
 C         -4.0028045175       -2.0133222235       -0.2169074322
 C         -3.3499806632       -0.8120003424       -0.8901378889
 C         -2.8345456670        0.2799475810        0.0658441678
 C         -3.9936219657        1.0326895013        0.7198335645
 C         -1.9383140626       -0.2984951235        1.1733989082
 O         -0.8561558200       -1.0616628856        0.6796397979
 C         -2.0079231031        1.2890594524       -0.7624553655
 O         -0.9087387695        0.6554374863       -1.3946279377
 H         -4.8275381026       -1.7108838566        0.4236073807
 H         -3.2797991690       -2.5648581574        0.3774597782
 H         -4.3953723472       -2.6849016838       -0.9772559512
 H         -4.0680477492       -0.3456819708       -1.5688522697
 H         -2.5134790686       -1.1636639893       -1.4969036258
 H         -3.6186947804        1.8288265976        1.3595406230
 H         -4.5914646383        0.3618458176        1.3300511932
 H         -4.6347651847        1.4749171664       -0.0389640387
 H         -2.5180517528       -0.9482376114        1.8345557605
 H         -1.5482636884        0.5335565240        1.7794628467
 H         -0.6993833175       -0.7197423650       -0.2224168976
 H         -1.6592912619        2.0926502866       -0.1061391075
 H         -2.6510111493        1.7341207169       -1.5341352896
 H         -0.1173174419        1.2190114231       -1.2953380547
