  44
        -56.24701834
 C          2.1619875216       -1.9826553637       -1.0016818327
 C          2.1535582112       -1.1021584968        0.2430253566
 C          2.8641715768        0.2568233389        0.1024651816
 C          4.3436974368        0.0712970495       -0.2397019066
 C          2.2204073859        1.1410259093       -0.9829257933
 O          0.8625154020        1.4334956700       -0.7525718467
 C          2.7853785538        0.9976817794        1.4578405522
 O          1.4700528046        1.2493563520        1.9089509577
 H          1.6719452797       -2.9248591775       -0.7685365621
 H          3.1744849331       -2.2003363613       -1.3305916930
 H          1.6147806028       -1.5165670457       -1.8157594325
 H          2.6336230497       -1.6475237128        1.0609268216
 H          1.1108334215       -0.9399164025        0.5214443188
 H          4.8114732633       -0.6186490894        0.4585302780
 H          4.8691107175        1.0224754787       -0.1862025101
 H          4.4583829958       -0.3211130464       -1.2457467530
 H          2.2680066161        0.6458214227       -1.9549040207
 H          2.7920919917        2.0788358857       -1.0510350765
 H          0.7881510756        1.7038988994        0.1793583625
 H          3.2480790809        1.9843152774        1.3634870089
 H          3.3436216377        0.4312122956        2.2141533855
 H          1.0579952202        0.4113041529        2.1517876241
 C         -2.7693403174        1.2738484428        1.8756720404
 C         -2.1030080537        0.9110806419        0.5532288458
 C         -2.8121486582       -0.1815301862       -0.2662809916
 C         -4.3124168859        0.0842907123       -0.3901082370
 C         -2.2213268638       -0.2073914777       -1.6971101581
 O         -0.8535375361       -0.5294001189       -1.7699799846
 C         -2.5910376635       -1.5623013502        0.3864872451
 O         -1.2350774312       -1.8888888717        0.5441656483
 H         -2.8997322761        0.3951186354        2.5019178008
 H         -3.7392834498        1.7376505972        1.7185213390
 H         -2.1400977874        1.9805495927        2.4128058307
 H         -1.0948790782        0.5567220566        0.7708221423
 H         -2.0186746823        1.8128931738       -0.0581568090
 H         -4.7664115787       -0.6246418858       -1.0794139215
 H         -4.4884345145        1.0890810729       -0.7673097857
 H         -4.8040940914       -0.0199066277        0.5727691185
 H         -2.4128314508        0.7601120293       -2.1803844553
 H         -2.7327595952       -0.9823244278       -2.2780874224
 H         -0.3238983383        0.2181140551       -1.4304997086
 H         -3.0987630470       -2.3263326211       -0.2228217293
 H         -3.0314949462       -1.5842954632        1.3868602018
 H         -0.8260911324       -1.7463851487       -0.3292421198
