  44
        -56.24697227
 C          2.7306756147       -2.2069748258        0.2461873868
 C          2.0743194781       -0.9678000544       -0.3520919631
 C          2.7992064276        0.3618102274       -0.0789901135
 C          4.2909782291        0.2713959108       -0.3998661620
 C          2.1906745924        1.4641237171       -0.9799699733
 O          0.8291858384        1.7338018459       -0.7483342914
 C          2.6194821244        0.7749916878        1.3970178530
 O          1.2747564700        0.8656089461        1.7872929437
 H          2.0954765198       -3.0722290608        0.0673018083
 H          2.8613373149       -2.1001632043        1.3198896285
 H          3.6994455063       -2.4011906861       -0.2058190281
 H          1.0690412685       -0.8853522338        0.0625521652
 H          1.9825617304       -1.1037020634       -1.4325180340
 H          4.4384028767       -0.1007275664       -1.4111849755
 H          4.7961354398       -0.3930079964        0.2952813597
 H          4.7539166705        1.2532072679       -0.3251648983
 H          2.3541610891        1.1968299931       -2.0325307260
 H          2.7112584520        2.4080269960       -0.7861410172
 H          0.2899911699        0.9962301939       -1.0934072137
 H          3.1291830767        1.7380544073        1.5575291883
 H          3.0828370596        0.0370811100        2.0573459845
 H          0.8415289466        1.4276105793        1.1192041077
 C         -2.1052085655        1.9127545574        1.0770202536
 C         -2.0913128416        0.3881466239        1.0755184336
 C         -2.8496848033       -0.2836213106       -0.0843576772
 C         -4.3248101979        0.1216345146       -0.0860272013
 C         -2.2439729162        0.0716861669       -1.4558698269
 O         -0.8937110031       -0.3016255078       -1.5983891628
 C         -2.7852684197       -1.8173904822        0.1036880863
 O         -1.4752564650       -2.3472174569        0.1269449392
 H         -1.6112458639        2.3109372146        0.1954862019
 H         -1.5637659141        2.2665803021        1.9509684602
 H         -3.1180963813        2.3031728949        1.1248605117
 H         -2.5297655337        0.0338512467        2.0131166069
 H         -1.0467129805        0.0720704409        1.0587507568
 H         -4.8818869466       -0.4723601287       -0.8074635250
 H         -4.4346057448        1.1681437491       -0.3542194097
 H         -4.7624392223       -0.0338175454        0.8971798326
 H         -2.2839847029        1.1501908881       -1.6218907274
 H         -2.8451955507       -0.4151376875       -2.2383909801
 H         -0.8181285281       -1.2155163613       -1.2728190603
 H         -3.2773764172       -2.3107082765       -0.7394343674
 H         -3.3221960867       -2.0940040910        1.0200506658
 H         -1.0384485246       -2.0609192937        0.9380652043
