  44
        -56.24705086
 C          2.8883966995       -2.2494866725       -0.0400262629
 C          2.1557992867       -0.9897556434       -0.4886649589
 C          2.8150740760        0.3384235977       -0.0759669483
 C          4.3174339243        0.3401937246       -0.3590499896
 C          2.1865881503        1.4965495100       -0.8889744381
 O          0.8149812623        1.7127331304       -0.6609263354
 C          2.5794772945        0.5993887071        1.4267106502
 O          1.2196139470        0.6239784711        1.7757713363
 H          2.2856271366       -3.1214403364       -0.2845764626
 H          3.0526024406       -2.2449653068        1.0343155818
 H          3.8479014971       -2.3514888876       -0.5395515960
 H          1.1560231690       -1.0106003257       -0.0537851480
 H          2.0513146203       -1.0117657680       -1.5761706890
 H          4.5067729034        0.0753889844       -1.3967798447
 H          4.8325634157       -0.3681208560        0.2832780264
 H          4.7356275162        1.3278784679       -0.1760173717
 H          2.3742345230        1.3250245807       -1.9575115540
 H          2.6765980096        2.4345032107       -0.6065055213
 H          0.2953740216        0.9818021345       -1.0503722368
 H          3.0596123652        1.5515858419        1.7007946505
 H          3.0372098568       -0.1923407195        2.0255989704
 H          0.8033888822        1.2479913277        1.1520624645
 C         -2.2372925639        2.0857338820        0.8350979143
 C         -2.2058747247        0.5748394736        1.0378619681
 C         -2.8790426541       -0.2609782822       -0.0665824811
 C         -4.3783299749        0.0359001417       -0.1388630792
 C         -2.2669382897       -0.0021812180       -1.4568915681
 O         -0.8953329889       -0.3063651352       -1.5484530870
 C         -2.7131321678       -1.7591306104        0.2804446559
 O         -1.3714744733       -2.1950649156        0.3608018449
 H         -1.8065954340        2.5676644387        1.7095483279
 H         -3.2530064160        2.4523762269        0.7137279037
 H         -1.6464590403        2.3775084211       -0.0280581323
 H         -2.7018986523        0.3361296760        1.9832129805
 H         -1.1598813019        0.2787019152        1.1312009915
 H         -4.8706793367       -0.6510460481       -0.8238945555
 H         -4.5523242048        1.0476007062       -0.4932061262
 H         -4.8349989247       -0.0720147122        0.8420313545
 H         -2.3682774383        1.0508546192       -1.7269738366
 H         -2.8239925094       -0.5974766274       -2.1961588993
 H         -0.7758845376       -1.1788315741       -1.1333123086
 H         -3.1642026847       -2.3695841671       -0.5072282368
 H         -3.2382309097       -1.9738344177        1.2199653237
 H         -0.9563946636       -1.7933020042        1.1343585810
