  44
        -56.24838422
 C          2.3588405866       -2.3141575994       -0.6710207498
 C          2.3508826621       -0.8353690961       -1.0434281049
 C          3.0367810756        0.1089719703       -0.0378837476
 C          4.5554103921       -0.0748837317       -0.0939005685
 C          2.7243041541        1.5738789982       -0.4332801743
 O          1.3989646416        1.9880696010       -0.1940960245
 C          2.5791530672       -0.1282541405        1.4146400472
 O          1.1974457003        0.0550159054        1.6198569206
 H          1.9421997673       -2.8920958527       -1.4926024371
 H          1.7490034517       -2.5015277893        0.2080866759
 H          3.3676310621       -2.6733439862       -0.4837723125
 H          1.3143647355       -0.5293254938       -1.1828119314
 H          2.8552884889       -0.7107116631       -2.0053795597
 H          5.0511763838        0.6029121217        0.5975982172
 H          4.9242427822        0.1291241131       -1.0963817106
 H          4.8294117618       -1.0911297192        0.1749135777
 H          2.9885655207        1.7248187279       -1.4877821884
 H          3.3438197345        2.2448770259        0.1703952494
 H          0.7815471971        1.5617469233       -0.8231742263
 H          3.1356348318        0.5602912027        2.0675796559
 H          2.8111683414       -1.1482764527        1.7277416797
 H          0.9968303536        0.9181009812        1.2028991185
 C         -4.5010361343       -1.5539110832       -0.5193432768
 C         -3.4124473584       -0.5948825712       -0.9862457636
 C         -2.8175306671        0.3118702166        0.1068301721
 C         -3.9050000948        1.1015037790        0.8357295215
 C         -2.0267261725       -0.5136912629        1.1456089345
 O         -0.9590815750       -1.2369802324        0.5546847773
 C         -1.8586231522        1.3167776412       -0.5592608776
 O         -0.8115367956        0.6960976402       -1.2759475808
 H         -4.1291361961       -2.2251013167        0.2497678976
 H         -4.8316823456       -2.1594067316       -1.3603668478
 H         -5.3630774394       -1.0180767763       -0.1311516794
 H         -3.8196655739        0.0458698650       -1.7723041844
 H         -2.6025315848       -1.1804011086       -1.4249552441
 H         -3.4578284601        1.8494842864        1.4872380821
 H         -4.5161598500        0.4432670485        1.4466817186
 H         -4.5459132407        1.6101303304        0.1198267518
 H         -2.7005027757       -1.2295065487        1.6311908984
 H         -1.6460503301        0.1624202038        1.9171048846
 H         -0.1286101409       -0.9868620764        1.0053867236
 H         -1.4292215045        1.9728175009        0.2133516627
 H         -2.4059336287        1.9453076767       -1.2692790487
 H         -0.7074480743       -0.1788097099       -0.8443153908
