  44
        -56.24840765
 C          2.7786707543       -2.4060590946        0.5138118339
 C          2.2406433298       -1.2521995320       -0.3262468955
 C          2.9828472778        0.0861820225       -0.1585198921
 C          4.4961622878       -0.1001850347       -0.2857150303
 C          2.5424002490        1.0636399504       -1.2768189543
 O          1.1961429718        1.4741274749       -1.2217427357
 C          2.6765378474        0.7226137155        1.2125831636
 O          1.3176710742        1.0459945795        1.3974125423
 H          2.1310186051       -3.2707702573        0.3887928460
 H          2.7946130092       -2.1504186475        1.5700798780
 H          3.7818824397       -2.6895222528        0.2076022541
 H          1.1942830507       -1.1069507324       -0.0597672902
 H          2.2778033521       -1.5407168823       -1.3797812466
 H          4.8867090243       -0.6661113588        0.5549439529
 H          4.9984671928        0.8647349557       -0.3051432865
 H          4.7350409868       -0.6284741265       -1.2056320024
 H          2.7662801571        0.6148701035       -2.2529127903
 H          3.1253475390        1.9867977223       -1.1887982358
 H          0.6010919547        0.7424501644       -1.4900246858
 H          3.2861153846        1.6318725987        1.3215097559
 H          2.9457449677        0.0386001968        2.0210861806
 H          1.0500973798        1.4927362316        0.5675205764
 C         -4.1524394188       -1.6090116587        1.0606458811
 C         -3.4397993262       -1.1250898173       -0.1964497289
 C         -2.8727529219        0.3043584499       -0.1225961762
 C         -3.9958071457        1.3407348279       -0.0702244721
 C         -1.9694352172        0.4989122427        1.1121981155
 O         -0.9555573661       -0.4911296787        1.1686653018
 C         -2.0345560726        0.5634090388       -1.3891205715
 O         -0.9121394579       -0.2883616861       -1.4984059710
 H         -3.4574977893       -1.6849811509        1.8918965230
 H         -4.5708455449       -2.5968285975        0.8807072066
 H         -4.9663018978       -0.9443980814        1.3393026113
 H         -4.1326552123       -1.1646994634       -1.0407036203
 H         -2.6211382597       -1.8144948681       -0.4107436685
 H         -3.5849844918        2.3480834052       -0.0777139694
 H         -4.5880012051        1.2235497805        0.8328971276
 H         -4.6505480206        1.2308888079       -0.9311602591
 H         -2.5758214108        0.4501039805        2.0254479234
 H         -1.5224946050        1.4981042842        1.0617969335
 H         -0.1396827801       -0.0809935788        1.5129915842
 H         -1.6904610814        1.6080541345       -1.3879328732
 H         -2.6494396279        0.4096492401       -2.2826061966
 H         -0.7728965519       -0.6385880719       -0.5943873845
