  44
        -56.25056660
 C          2.3974747793       -2.3273066223       -0.0251423754
 C          2.3415382733       -1.0269383543       -0.8207879187
 C          2.8361321622        0.2317616403       -0.0827115766
 C          4.3664514054        0.2437942734       -0.0364785590
 C          2.3667579104        1.4762481422       -0.8687210952
 O          0.9690075710        1.6496244712       -0.8753622070
 C          2.3265368931        0.3272558171        1.3734535205
 O          0.9328125341        0.4776242644        1.5197620913
 H          3.3883722133       -2.4956985426        0.3904959110
 H          2.1651041791       -3.1601837223       -0.6848586450
 H          1.6708386063       -2.3359000259        0.7831228602
 H          1.3196945386       -0.8635987918       -1.1616069034
 H          2.9570425584       -1.1379481807       -1.7171090812
 H          4.7400933255       -0.6274252554        0.4949106277
 H          4.7315436743        1.1336131431        0.4719398905
 H          4.7749468047        0.2346634709       -1.0441629285
 H          2.6736230092        1.3936686926       -1.9150441038
 H          2.8437647706        2.3701501420       -0.4398401099
 H          0.6989554899        1.5349869010        0.0568946154
 H          2.7567751252        1.2257189620        1.8295967208
 H          2.6827321589       -0.5379086623        1.9431835104
 H          0.4687006547       -0.3563714677        1.3090719636
 C         -2.9917432410        1.5479351734        1.7891322913
 C         -2.2803154925        1.1618674316        0.4961950105
 C         -2.7649474762       -0.1468218620       -0.1543508793
 C         -4.2931995817       -0.2115171415       -0.2050736241
 C         -2.2572293522       -0.2181639505       -1.6156600083
 O         -0.8596214101       -0.3115569675       -1.7681501535
 C         -2.2460142759       -1.3728386574        0.6257080518
 O         -0.8434623101       -1.5022938176        0.6249006752
 H         -2.9373839512        0.7463693057        2.5209408605
 H         -4.0358765518        1.7930795300        1.6147838314
 H         -2.5061466161        2.4225865630        2.2155446056
 H         -1.2194850672        1.0627053552        0.7216669392
 H         -2.3986439931        1.9764185857       -0.2231558937
 H         -4.6184616429       -1.0713647866       -0.7870892445
 H         -4.6937686816        0.6863771397       -0.6695117148
 H         -4.7083521426       -0.3045507723        0.7940443921
 H         -2.6459335717        0.6447807066       -2.1709946858
 H         -2.6531663316       -1.1258254449       -2.0837100103
 H         -0.4238297034        0.5369882956       -1.5604577613
 H         -2.6965770366       -2.2796153152        0.1951300248
 H         -2.5486123691       -1.3104546371        1.6736666034
 H         -0.5745027092       -1.3796166647       -0.3059303428
