  44
        -56.24928495
 C          2.4546712478       -2.2621175259       -0.3628275766
 C          2.4297011357       -0.8765429247       -0.9990804031
 C          2.8331107558        0.2877876917       -0.0719699377
 C          4.3582526312        0.3368798803        0.0580242579
 C          2.3692406378        1.6178862818       -0.7141639562
 O          0.9811015355        1.8581269664       -0.6709083158
 C          2.2428915103        0.1748302930        1.3478078805
 O          0.8362419407        0.1742975550        1.3924495586
 H          2.2845138090       -3.0135375729       -1.1305138087
 H          1.6709209804       -2.3640044216        0.3821357541
 H          3.4155236127       -2.4683804306        0.1027280954
 H          1.4291071859       -0.7024696357       -1.3935871951
 H          3.1150028270       -0.8651219034       -1.8510689072
 H          4.8157345838        0.5120050702       -0.9130559005
 H          4.7369741776       -0.6018001897        0.4531054318
 H          4.6647038545        1.1362921146        0.7291438806
 H          2.7299741373        1.6564162052       -1.7511699225
 H          2.8153888552        2.4554718519       -0.1691251013
 H          0.4955783220        1.1887302013       -1.1888368151
 H          2.6227769097        1.0198831643        1.9423149300
 H          2.5742741849       -0.7483039048        1.8272235942
 H          0.5721529109        0.9236413749        0.8210291977
 C         -2.4543372581        2.2635313917        0.3532439554
 C         -2.4292757295        0.8802710455        0.9946326401
 C         -2.8331929607       -0.2872439165        0.0718485790
 C         -4.3582318653       -0.3352249889       -0.0593987693
 C         -2.2410618551       -0.1800741758       -1.3475672738
 O         -0.8343046100       -0.1785378306       -1.3898553994
 C         -2.3713068840       -1.6154722965        0.7194316229
 O         -0.9835348455       -1.8579019563        0.6772451762
 H         -2.2845142133        3.0177270709        1.1183235332
 H         -3.4151270917        2.4679153187       -0.1133264308
 H         -1.6702661187        2.3627079079       -0.3918179052
 H         -3.1141257126        0.8720362973        1.8470084099
 H         -1.4285118740        0.7072666792        1.3891124948
 H         -4.7355275809        0.6016407934       -0.4600840568
 H         -4.8168451943       -0.5043923396        0.9122034925
 H         -4.6649763206       -1.1379901588       -0.7263552640
 H         -2.5724705065        0.7407572340       -1.8314189335
 H         -2.6194295909       -1.0279577763       -1.9389968744
 H         -0.5707125074       -0.9258613895       -0.8155510981
 H         -2.8185083402       -2.4545089681        0.1774565642
 H         -2.7323850869       -1.6495322017        1.7564817571
 H         -0.4968510730       -1.1886461166        1.1942648718
