  44
        -56.24886492
 C          2.2624530594       -0.5468391964       -2.3936245413
 C          1.7259221170        0.3060175629       -1.2486220465
 C          2.6715743526        0.4783188447       -0.0467725773
 C          3.9850848299        1.1407889362       -0.4659867947
 C          1.9853019599        1.3906072734        0.9941589515
 O          0.7714103975        0.8797547241        1.4861500043
 C          3.0000119937       -0.8754357917        0.6170782540
 O          1.8826524886       -1.5620539037        1.1356386061
 H          1.5166887387       -0.5954591938       -3.1841057024
 H          2.4707260793       -1.5643070366       -2.0725785341
 H          3.1700868819       -0.1228803661       -2.8156626982
 H          0.7909400626       -0.1338706248       -0.8987686903
 H          1.4937723744        1.3017215733       -1.6342407576
 H          3.7877857720        2.0630393438       -1.0071194361
 H          4.5647296970        0.4797576832       -1.1043558103
 H          4.5875879642        1.3785664472        0.4081415021
 H          1.7519679573        2.3601212245        0.5435534355
 H          2.6811754403        1.5615557064        1.8298764501
 H          0.9536520112       -0.0477194312        1.7286156783
 H          3.6553814621       -0.7027795221        1.4765246768
 H          3.5436881386       -1.5109744132       -0.0935534430
 H          1.2686605530       -1.7685739545        0.4153911618
 C         -1.7601408297        1.4147025070       -2.0119140917
 C         -1.9576341527        1.1706016801       -0.5195513395
 C         -2.7784954948       -0.0814223833       -0.1604573511
 C         -4.1590775489       -0.0434596857       -0.8192074832
 C         -2.0661548088       -1.3808293498       -0.5888008702
 O         -0.7941551159       -1.5519482231       -0.0151457339
 C         -2.9908908543       -0.1081014038        1.3713950328
 O         -1.8150847764       -0.2628708820        2.1326920077
 H         -1.1434552482        2.2997398644       -2.1526711037
 H         -2.7078265937        1.5829565882       -2.5166707233
 H         -1.2563019543        0.5763976554       -2.4847585153
 H         -2.4627001126        2.0404502675       -0.0897541168
 H         -0.9751482402        1.0941029065       -0.0509647902
 H         -4.7796461331       -0.8571103901       -0.4496596061
 H         -4.0748690370       -0.1476138379       -1.8970688054
 H         -4.6590188995        0.8964207178       -0.5969345547
 H         -1.9214919885       -1.3957023189       -1.6719971534
 H         -2.7115606967       -2.2327003332       -0.3241541484
 H         -0.9093317406       -1.3892501324        0.9394520343
 H         -3.6148617853       -0.9673182534        1.6360139294
 H         -3.5242480520        0.8037006834        1.6744410606
 H         -1.2301796424        0.4957864149        1.9901304920
