  44
        -56.24870034
 C          2.8785019535       -1.7111201382       -1.6436429850
 C          2.3840608178       -1.2554834173       -0.2751152724
 C          2.8225870826        0.1548155839        0.1568865119
 C          4.3485238767        0.2715358332        0.1631589000
 C          2.2513876273        1.2404971243       -0.7772068223
 O          0.8443064526        1.2788934358       -0.8031169520
 C          2.3302597253        0.4167292773        1.6034405968
 O          0.9406868675        0.5970259356        1.7565470058
 H          2.4940820755       -2.7078395967       -1.8474126654
 H          3.9635205399       -1.7533027884       -1.6843110022
 H          2.5209554483       -1.0510825455       -2.4287160798
 H          2.7349726735       -1.9655270444        0.4786664686
 H          1.2958454842       -1.2946172839       -0.2860476699
 H          4.7860100742       -0.5231313419        0.7629297695
 H          4.6576719520        1.2268581533        0.5819390291
 H          4.7430537594        0.2043531897       -0.8465317958
 H          2.5805850287        1.0735720554       -1.8050418038
 H          2.6383348149        2.2181638389       -0.4525103101
 H          0.5865450796        1.2673634744        0.1426663965
 H          2.7716937127        1.3521308652        1.9625860032
 H          2.6840194519       -0.3948115568        2.2527815982
 H          0.4523904314       -0.2335027718        1.5987948574
 C         -2.4685995424        1.7098679540        1.6146033873
 C         -2.4265590201        1.3168365149        0.1420827064
 C         -2.8663786476       -0.1266694983       -0.1749734123
 C         -4.3959515701       -0.2070878953       -0.1753308986
 C         -2.3728356528       -0.4962725701       -1.5958799807
 O         -0.9841434185       -0.7111620291       -1.7176690652
 C         -2.3424764244       -1.1678997327        0.8351958932
 O         -0.9403038611       -1.2876342321        0.8741393927
 H         -1.7063580524        1.1814355579        2.1798024752
 H         -3.4427053120        1.5061291526        2.0531072794
 H         -2.2736429065        2.7758728858        1.7073466597
 H         -1.4135556752        1.4804136432       -0.2226327504
 H         -3.0806116247        1.9866108050       -0.4228530778
 H         -4.7316987715       -1.2208005584       -0.3828800219
 H         -4.8100285569        0.4517681061       -0.9352044315
 H         -4.7921452277        0.0904072730        0.7917495356
 H         -2.7012035768        0.2801752883       -2.2992148889
 H         -2.8305039363       -1.4433807284       -1.8986731641
 H         -0.4868322841        0.1186263148       -1.5876805228
 H         -2.7793349134       -2.1439918761        0.5735414185
 H         -2.6661338218       -0.9165080400        1.8467872072
 H         -0.6796274760       -1.3517076764       -0.0667111586
