  44
        -56.24819947
 C          1.7932179845        1.3127112154       -2.1858027247
 C          1.9176403112        0.0662245608       -1.3163027992
 C          2.7929299120        0.2317780105       -0.0605201217
 C          4.1795870007        0.7729745617       -0.4147651837
 C          2.1386672864        1.1822752823        0.9629230669
 O          0.8677185829        0.7638251761        1.3940753211
 C          2.9881911243       -1.1552089232        0.5950335400
 O          1.8092030382       -1.7563346635        1.0791854692
 H          1.1278389210        1.1055028242       -3.0205913831
 H          2.7560586169        1.6123699171       -2.5911758027
 H          1.3780605932        2.1437340339       -1.6221959091
 H          2.3409254709       -0.7390383564       -1.9236706147
 H          0.9165591870       -0.2414315623       -1.0080284589
 H          4.1175421790        1.8035262785       -0.7521502758
 H          4.6305322462        0.1733358780       -1.2020327659
 H          4.8322535763        0.7423425808        0.4551815003
 H          2.0058737158        2.1761083725        0.5279688405
 H          2.8129059988        1.2804128095        1.8278326287
 H          0.9682733559       -0.1747662054        1.6390283908
 H          3.6356196887       -1.0545081465        1.4715973647
 H          3.4895264296       -1.8212919660       -0.1210958937
 H          1.2037785129       -1.9281043686        0.3432871084
 C         -1.9082562477        1.3860261010       -2.0414781325
 C         -1.9674807486        1.1199082452       -0.5411639496
 C         -2.7982618595       -0.1091547544       -0.1291944546
 C         -4.2111810880       -0.0482648161       -0.7132875659
 C         -2.1305295197       -1.4218120642       -0.5875700182
 O         -0.8328881398       -1.6059722374       -0.0791247737
 C         -2.9321092856       -0.1245746882        1.4114282920
 O         -1.7206776171       -0.2855509053        2.1129378430
 H         -1.4927822981        0.5350388186       -2.5742204633
 H         -1.2706319698        2.2463819442       -2.2306140274
 H         -2.8933129243        1.6037662513       -2.4457654409
 H         -2.3927935526        1.9997405573       -0.0497259124
 H         -0.9478672503        0.9937414578       -0.1719689682
 H         -4.8290059275       -0.8400218855       -0.2948005728
 H         -4.1892256124       -0.1738267245       -1.7919212581
 H         -4.6760759599        0.9071488748       -0.4813727206
 H         -2.0417640200       -1.4429809045       -1.6766932206
 H         -2.7729865716       -2.2634087242       -0.2855038188
 H         -0.8988647905       -1.4362152438        0.8789446464
 H         -3.5498530873       -0.9759290732        1.7135068204
 H         -3.4409295837        0.7942907022        1.7349090903
 H         -1.1382230739        0.4677391498        1.9369649397
