%nprocshared=4
%mem=8000mb
%chk=15.chk
%nprocshared=4
%mem=8000mb
#T wB97XD/def2svpp opt=tight freq int(grid=ultrafine) scf=(verytight,qc) Volume=tight

Dimer

0 1
 C          2.4565162164       -2.2931318969       -0.3046725946
 C          2.3097472437       -0.9046642482       -0.9194108474
 C          2.7838896522        0.2696283310       -0.0417491200
 C          4.3127802926        0.3496370410       -0.0557443060
 C          2.2268267799        1.5830008647       -0.6344065458
 O          0.8242751869        1.6895175875       -0.5657084359
 C          2.3376278364        0.1481644238        1.4326059254
 O          0.9459317884        0.2029556435        1.6484804709
 H          1.7682033510       -2.4414290580        0.5234569849
 H          3.4713714511       -2.4668875745        0.0458317962
 H          2.2294807497       -3.0434043538       -1.0586106876
 H          1.2672720550       -0.7491865332       -1.1948160566
 H          2.8878869196       -0.8689429578       -1.8462303284
 H          4.7473958584       -0.5649781502        0.3386778702
 H          4.6625880341        1.1811406796        0.5523648940
 H          4.6744233455        0.4934094033       -1.0710928702
 H          2.4910839613        1.6552162889       -1.6931339394
 H          2.6833706002        2.4339047700       -0.1072302133
 H          0.5948509893        1.4365278618        0.3501763975
 H          2.7434022302        1.0014830686        1.9870434710
 H          2.7598381271       -0.7634080886        1.8694582016
 H          0.5135710070       -0.6165741369        1.3383373670
 C         -2.4570036007        2.2932513372        0.3039268496
 C         -2.3095346062        0.9050156003        0.9190492161
 C         -2.7837892328       -0.2696162079        0.0419222322
 C         -4.3126726005       -0.3496670975        0.0563177240
 C         -2.3377549376       -0.1486453021       -1.4325406162
 O         -0.9460823589       -0.2030828460       -1.6486064086
 C         -2.2266042364       -1.5827752203        0.6349232710
 O         -0.8240958172       -1.6895440434        0.5656532079
 H         -3.4718737915        2.4663265207       -0.0468623779
 H         -1.7685920768        2.4417391344       -0.5240905859
 H         -2.2306059599        3.0438673282        1.0577070159
 H         -2.8872038316        0.8693620258        1.8461631498
 H         -1.2668920479        0.7498930693        1.1939881751
 H         -4.7474023205        0.5649954608       -0.3378583529
 H         -4.6740441705       -0.4935718521        1.0717474809
 H         -4.6626385231       -1.1810805036       -0.5518189368
 H         -2.7603349132        0.7626051948       -1.8697197551
 H         -2.7433295274       -1.0023329475       -1.9865593581
 H         -0.5138528070        0.6165205640       -1.3385039358
 H         -2.6835093281       -2.4338553335        0.1083480438
 H         -2.4903716493       -1.6544885290        1.6938073565
 H         -0.5948881799       -1.4367672460       -0.3503408523


