%chk=43.chk
%nprocshared=4
%mem=8000mb
#T wB97XD/def2svpp opt=(calcall,tight) int(grid=ultrafine) scf=(verytight,qc)

Comment gs min

0 1
C       -0.000136   -0.000097    1.910590
C       -0.000009    0.000004    0.409402
N        0.750195   -1.199207   -0.164898
O        0.524289   -2.246680    0.381495
O        1.473176   -0.994249   -1.101144
N       -1.413665   -0.050069   -0.164977
O       -1.597492   -0.778319   -1.101528
O       -2.207988    0.668934    0.381688
N        0.663513    1.249307   -0.164780
O        1.683702    1.577185    0.381552
O        0.124456    1.773235   -1.100831
H       -0.498246   -0.911840    2.270738
H       -0.540728    0.887040    2.270954
H        1.038401    0.024304    2.271075



