  18
        -24.46605108
 C         -0.7081574118        1.9549275884       -0.1573486964
 C         -0.9044804771        0.8254878001        0.8556422766
 C         -1.2262952985        1.4297223210        2.2280367347
 C         -2.0896256413       -0.0775440992        0.4448248062
 O         -1.8424463504       -0.9181625356       -0.6454910183
 C          0.3700979479       -0.0041918961        1.0196557912
 Br         1.1997210438       -0.5697664181       -0.6530075803
 H          0.1543026784        2.5607864276        0.1139049780
 H         -1.5860965689        2.5972800425       -0.1767387979
 H         -0.5417258605        1.5691299911       -1.1612718849
 H         -2.1809178308        1.9491492763        2.1920923934
 H         -0.4593937427        2.1430190980        2.5217795633
 H         -1.2875254224        0.6549373231        2.9893566177
 H         -2.9668186360        0.5601432839        0.2575458126
 H         -2.3326306662       -0.7506393110        1.2727162343
 H         -1.6432152851       -0.3891108817       -1.4265577089
 H          0.1653555230       -0.9204146177        1.5722400882
 H          1.1370441186        0.5728297504        1.5357322140
