  18
        -24.46715766
 C         -1.2014704646        1.4918039163       -0.6601029734
 C         -1.1795949858        0.3091776685        0.3073876043
 C         -0.8713762357        0.7808936392        1.7281143683
 C         -2.5713794910       -0.3709788660        0.3124836207
 O         -2.9934314209       -0.8438146466       -0.9409587823
 C         -0.1573939210       -0.7318650246       -0.1477204394
 Br         1.6866772496       -0.0910527216       -0.0852497171
 H         -1.5509292330        1.1693869571       -1.6388610970
 H         -0.2097189644        1.9263680905       -0.7633125004
 H         -1.8765820200        2.2611755483       -0.2943504530
 H         -1.6530344544        1.4492965041        2.0805185154
 H          0.0734475977        1.3186192271        1.7549475350
 H         -0.8081468806       -0.0633550774        2.4128654847
 H         -3.3175653562        0.3716969852        0.6043129957
 H         -2.5817655517       -1.1788426989        1.0580791820
 H         -2.4942028085       -1.6322803596       -1.1767785794
 H         -0.3214769973       -1.0180569867       -1.1868468983
 H         -0.1809279342       -1.6162520837        0.4907110470
