  18
        -24.46727936
 C         -1.0551249118        1.7301405556       -0.1134355980
 C         -0.9423015234        0.4682582843        0.7408428608
 C         -1.5706196330        0.7136761680        2.1167825941
 C         -1.6809510031       -0.6895938458        0.0487751660
 O         -3.0523236304       -0.3769321053       -0.0386135243
 C          0.5186233679        0.0943436829        0.9712397154
 Br         1.4872948185       -0.3364633187       -0.6659086701
 H         -0.5927659221        2.5765765857        0.3901601581
 H         -2.1039822794        1.9540242948       -0.2860780557
 H         -0.5701482171        1.5904751435       -1.0775522684
 H         -1.0939615913        1.5559221167        2.6126962891
 H         -1.4732485216       -0.1658591582        2.7501221389
 H         -2.6268751077        0.9303776699        1.9885517593
 H         -1.5360865992       -1.6143059780        0.6297745103
 H         -1.2602791561       -0.8437394847       -0.9542959220
 H         -3.4967890301       -1.0702415465       -0.5349598481
 H          0.6075304374       -0.7884302303        1.6044189783
 H          1.0610420066        0.9233892245        1.4243360731
