  18
        -24.46788150
 C         -1.6453492240        2.1129145020       -0.5527615122
 C         -0.9571826502        0.8678718249        0.0246927600
 C         -0.9442579556        0.9451331396        1.5507134086
 C         -1.7112368322       -0.4046809099       -0.4212475901
 O         -3.0598823112       -0.4217829085       -0.0391851760
 C          0.4630614124        0.8499822913       -0.5349009886
 Br         1.5001092512       -0.7137306264       -0.0014700596
 H         -1.7674683436        2.0274814580       -1.6318725223
 H         -1.0553026154        3.0032569878       -0.3456108088
 H         -2.6227977285        2.2499901476       -0.0955193834
 H         -0.3514521084        0.1363234123        1.9720814801
 H         -1.9590509470        0.8500926014        1.9292244617
 H         -0.5299915788        1.8936627163        1.8866497292
 H         -1.2688884916       -1.2809426346        0.0586151627
 H         -1.6146714028       -0.5219108471       -1.5119878705
 H         -3.5286671211        0.2760611258       -0.5094049345
 H          1.0287784523        1.7114428358       -0.1809641088
 H          0.4577637510        0.8416359884       -1.6250671886
