  18
        -24.46827776
 C         -0.5691877826        2.0641292125        0.0888133019
 C         -0.9569534827        0.7119723878        0.6855179072
 C         -1.6124978271        0.9295051891        2.0565944552
 C         -1.9407152425       -0.0026579681       -0.2651913079
 O         -2.4084225678       -1.2316278029        0.2304245078
 C          0.2662606330       -0.1758559150        0.9075591460
 Br         1.3706775106       -0.3921005345       -0.6837179426
 H         -1.4363280812        2.7192254170        0.0460399546
 H         -0.1806903379        1.9481245179       -0.9201695994
 H          0.1939515581        2.5437486916        0.6986648401
 H         -2.5595840608        1.4531132751        1.9407805421
 H         -0.9673422143        1.5327843430        2.6914561686
 H         -1.7921637831       -0.0171370446        2.5635717040
 H         -1.4344651256       -0.2403922618       -1.2045196995
 H         -2.7771684671        0.6725596596       -0.4915641798
 H         -3.0020815477       -1.0663589448        0.9703689151
 H         -0.0435335942       -1.1819738017        1.1900337561
 H          0.9234741904        0.2401300191        1.6704287320
