  18
        -24.46708092
 C         -1.1788485606        2.6142501803       -0.5035270465
 C         -0.8589914841        1.2047838632        0.0108741093
 C         -0.8985615930        1.1895171839        1.5380736236
 C         -1.9209255461        0.2310412719       -0.5611979721
 O         -2.0777012979       -0.9673733264        0.1421667091
 C          0.5444950104        0.8788811674       -0.4998036950
 Br         1.1970896380       -0.9053546590       -0.0281226677
 H         -1.2232572457        2.6289232393       -1.5908461948
 H         -0.4207805111        3.3240686307       -0.1789468097
 H         -2.1401162747        2.9422037379       -0.1170096062
 H         -0.1989452704        1.9169243317        1.9452439520
 H         -0.6450718471        0.2051530977        1.9248592118
 H         -1.8991704517        1.4345721434        1.8841800406
 H         -1.6967839626        0.0389842927       -1.6225324708
 H         -2.8993453746        0.7160173614       -0.5081575889
 H         -1.2637206966       -1.4841982831        0.0900525918
 H          1.2757259072        1.5693564563       -0.0801312978
 H          0.5857696699        0.9255406421       -1.5882886182
