  18
        -24.46570738
 C         -1.2341246580        1.3604832027       -0.5332183202
 C         -1.1322366950       -0.0607431754        0.0188662356
 C         -1.1246319996       -0.0368168986        1.5467485632
 C         -2.3449066119       -0.8798355662       -0.4674617888
 O         -3.5267184918       -0.2763965071        0.0005130621
 C          0.1127091152       -0.7634380052       -0.5188074241
 Br         1.7652801721        0.1269239359       -0.0078557658
 H         -0.4206261133        1.9775057859       -0.1592422070
 H         -2.1772841039        1.7998718695       -0.2214733689
 H         -1.1966782666        1.3551848134       -1.6214513522
 H         -0.3110760563        0.5820529253        1.9174915151
 H         -1.0090615473       -1.0425543468        1.9477523452
 H         -2.0652199434        0.3723237164        1.9040982368
 H         -2.2642524212       -1.9109971467       -0.0904169907
 H         -2.3423183027       -0.9181122096       -1.5677003588
 H         -4.2820931680       -0.7888458858       -0.3024430920
 H          0.1145160712       -0.7885829892       -1.6087715262
 H          0.1922903585       -1.7799863587       -0.1328924768
