  18
        -24.46825554
 C         -0.5509557551        2.1226204706        0.1068153226
 C         -0.9433156342        0.7667902837        0.6913820302
 C         -1.6280207649        0.9598697758        2.0490475594
 C         -1.9100437134        0.0508582738       -0.2647316265
 O         -2.2517597444       -1.2080244175        0.2747311051
 C          0.2845741511       -0.1083392456        0.9290729670
 Br         1.3269297737       -0.4368347557       -0.6833604365
 H         -0.0708041349        2.0072872673       -0.8626349308
 H          0.1386221352        2.6349074304        0.7746500670
 H         -1.4316072064        2.7475820973       -0.0219953094
 H         -1.9612271375        0.0012831433        2.4376853613
 H         -2.4940612685        1.6077399416        1.9383883220
 H         -0.9454995941        1.4145599355        2.7634978032
 H         -1.4329371463       -0.0669488292       -1.2476270788
 H         -2.8084306747        0.6711670032       -0.3946105791
 H         -2.8203891813       -1.6688278198       -0.3486809636
 H         -0.0167566939       -1.0884476067        1.2946861260
 H          0.9699628074        0.3607964431        1.6337381085
