  18
        -24.46947023
 C         -0.9154139267        1.8754994146       -0.5458070064
 C         -1.1736768322        0.4741999587        0.0064085372
 C         -1.1215209109        0.4966870125        1.5361695050
 C         -2.5685067609        0.0024032619       -0.4689430307
 O         -2.9095179154       -1.2901601829       -0.0404531243
 C         -0.1636423751       -0.5230820184       -0.5557839366
 Br         1.6693851181       -0.1616546902       -0.0011252551
 H          0.0779367247        2.2177054899       -0.2637566278
 H         -1.6433915272        2.5791963350       -0.1489817120
 H         -0.9884398116        1.8827178079       -1.6316888673
 H         -1.1882026861       -0.5096089150        1.9479538061
 H         -1.9388387569        1.0955122037        1.9340057541
 H         -0.1857530615        0.9345325878        1.8759339777
 H         -2.5904163936       -0.0388296903       -1.5612660858
 H         -3.3200926743        0.7332594598       -0.1400252625
 H         -3.0161473904       -1.2818820122        0.9174069255
 H         -0.1562040607       -0.4976280735       -1.6450463016
 H         -0.3907693411       -1.5344901683       -0.2200284224
  18
        -24.46884535
 C         -0.5577641214        2.2166424934        0.0684029888
 C         -0.9009356436        0.8737461816        0.7105597974
 C         -1.5619880461        1.0861644998        2.0768125557
 C         -1.8811046786        0.1066919887       -0.2065337175
 O         -2.1138879486       -1.2168538354        0.2031034941
 C          0.3687032536        0.0611322910        0.9566919704
 Br         1.2446129364       -0.5338022282       -0.6896424124
 H          0.0616143154        2.8109347346        0.7373443865
 H         -1.4657361913        2.7750488939       -0.1456419271
 H         -0.0190623328        2.0737076320       -0.8664420398
 H         -1.9393223221        0.1400232717        2.4580774553
 H         -2.3977771216        1.7742080801        1.9802317159
 H         -0.8550564119        1.4999880607        2.7930254745
 H         -1.5174700441        0.1377770793       -1.2414356789
 H         -2.8527964793        0.6060572884       -0.1739904501
 H         -1.3718814531       -1.7645606960       -0.0776733117
 H          0.1522719865       -0.8434426860        1.5246978189
 H          1.1111805265        0.6538826031        1.4896167312
  18
        -24.46871847
 C         -1.0117271089        1.7131706391       -0.1074804660
 C         -0.9402548409        0.4523199711        0.7576027133
 C         -1.5559124029        0.7319509381        2.1329447953
 C         -1.7121239864       -0.7062956316        0.0878524841
 O         -3.0788143902       -0.4410834711       -0.0846770767
 C          0.5109554193        0.0385663237        0.9818169605
 Br         1.4842681640       -0.3245582838       -0.6709015189
 H         -2.0299594231        2.0949936177       -0.1426087418
 H         -0.6777204060        1.5092955428       -1.1235684432
 H         -0.3783052785        2.4939421661        0.3094877967
 H         -2.6264324602        0.8860566491        2.0228176640
 H         -1.1160097840        1.6196442373        2.5817344615
 H         -1.4029490408       -0.1110002838        2.8034498134
 H         -1.6680212501       -1.5910296237        0.7296471665
 H         -1.2437783356       -0.9543086974       -0.8747325729
 H         -3.1776487139        0.2604812688       -0.7374220990
 H          0.5740925072       -0.8777396453        1.5682633046
 H          1.0676710788        0.8304964805        1.4821195066
  18
        -24.46827776
 C         -0.5691877826        2.0641292125        0.0888133019
 C         -0.9569534827        0.7119723878        0.6855179072
 C         -1.6124978271        0.9295051891        2.0565944552
 C         -1.9407152425       -0.0026579681       -0.2651913079
 O         -2.4084225678       -1.2316278029        0.2304245078
 C          0.2662606330       -0.1758559150        0.9075591460
 Br         1.3706775106       -0.3921005345       -0.6837179426
 H         -1.4363280812        2.7192254170        0.0460399546
 H         -0.1806903379        1.9481245179       -0.9201695994
 H          0.1939515581        2.5437486916        0.6986648401
 H         -2.5595840608        1.4531132751        1.9407805421
 H         -0.9673422143        1.5327843430        2.6914561686
 H         -1.7921637831       -0.0171370446        2.5635717040
 H         -1.4344651256       -0.2403922618       -1.2045196995
 H         -2.7771684671        0.6725596596       -0.4915641798
 H         -3.0020815477       -1.0663589448        0.9703689151
 H         -0.0435335942       -1.1819738017        1.1900337561
 H          0.9234741904        0.2401300191        1.6704287320
  18
        -24.46825554
 C         -0.5509557551        2.1226204706        0.1068153226
 C         -0.9433156342        0.7667902837        0.6913820302
 C         -1.6280207649        0.9598697758        2.0490475594
 C         -1.9100437134        0.0508582738       -0.2647316265
 O         -2.2517597444       -1.2080244175        0.2747311051
 C          0.2845741511       -0.1083392456        0.9290729670
 Br         1.3269297737       -0.4368347557       -0.6833604365
 H         -0.0708041349        2.0072872673       -0.8626349308
 H          0.1386221352        2.6349074304        0.7746500670
 H         -1.4316072064        2.7475820973       -0.0219953094
 H         -1.9612271375        0.0012831433        2.4376853613
 H         -2.4940612685        1.6077399416        1.9383883220
 H         -0.9454995941        1.4145599355        2.7634978032
 H         -1.4329371463       -0.0669488292       -1.2476270788
 H         -2.8084306747        0.6711670032       -0.3946105791
 H         -2.8203891813       -1.6688278198       -0.3486809636
 H         -0.0167566939       -1.0884476067        1.2946861260
 H          0.9699628074        0.3607964431        1.6337381085
  18
        -24.46809888
 C         -1.1580133467        1.5100839781       -0.6432993579
 C         -1.1738381775        0.3397429947        0.3397304912
 C         -0.8703662403        0.8267361537        1.7561104935
 C         -2.5667405827       -0.3191965216        0.3238369680
 O         -2.8221607484       -0.8567205105       -0.9550287712
 C         -0.1806416060       -0.7371229593       -0.0921105110
 Br         1.6626291919       -0.1190783387       -0.1104318690
 H         -1.4440621809        1.1659051088       -1.6344219883
 H         -0.1670882061        1.9548432904       -0.6956414103
 H         -1.8607975530        2.2770348163       -0.3259200430
 H          0.0974747068        1.3216444207        1.7859383775
 H         -0.8549606626       -0.0049420916        2.4586538045
 H         -1.6264270788        1.5372255278        2.0823630445
 H         -3.3175884277        0.4396614189        0.5821321850
 H         -2.6060826393       -1.1130698304        1.0854625970
 H         -3.7253370206       -1.1865211568       -0.9819621049
 H         -0.4023468273       -1.0734679584       -1.1032802121
 H         -0.2027148932       -1.5866900869        0.5904017427
  18
        -24.46788150
 C         -1.6453492240        2.1129145020       -0.5527615122
 C         -0.9571826502        0.8678718249        0.0246927600
 C         -0.9442579556        0.9451331396        1.5507134086
 C         -1.7112368322       -0.4046809099       -0.4212475901
 O         -3.0598823112       -0.4217829085       -0.0391851760
 C          0.4630614124        0.8499822913       -0.5349009886
 Br         1.5001092512       -0.7137306264       -0.0014700596
 H         -1.7674683436        2.0274814580       -1.6318725223
 H         -1.0553026154        3.0032569878       -0.3456108088
 H         -2.6227977285        2.2499901476       -0.0955193834
 H         -0.3514521084        0.1363234123        1.9720814801
 H         -1.9590509470        0.8500926014        1.9292244617
 H         -0.5299915788        1.8936627163        1.8866497292
 H         -1.2688884916       -1.2809426346        0.0586151627
 H         -1.6146714028       -0.5219108471       -1.5119878705
 H         -3.5286671211        0.2760611258       -0.5094049345
 H          1.0287784523        1.7114428358       -0.1809641088
 H          0.4577637510        0.8416359884       -1.6250671886
  18
        -24.46767913
 C         -1.2217186002        1.3527870744       -0.5324157786
 C         -1.1347769906       -0.0583239279        0.0478895910
 C         -1.1183211314       -0.0025858632        1.5774309915
 C         -2.3535859738       -0.8818733581       -0.4375984676
 O         -3.5860553177       -0.3391079281       -0.0538193594
 C          0.1037908135       -0.7857347905       -0.4688661287
 Br         1.7687445478        0.1326520388       -0.0369636682
 H         -0.4496609154        1.9927207781       -0.1115804578
 H         -2.1942471066        1.7830160059       -0.3058351479
 H         -1.1048008572        1.3302947404       -1.6142167230
 H         -1.9561930953        0.5833133082        1.9500491731
 H         -0.2050615043        0.4731493537        1.9284463878
 H         -1.1690253187       -1.0040932915        2.0041145505
 H         -2.2588672932       -1.9192085555       -0.0804546753
 H         -2.3737477542       -0.8979133835       -1.5304992002
 H         -3.6443734889       -0.3474034783        0.9081050745
 H          0.0862645148       -0.8699786567       -1.5551936555
 H          0.1921083214       -1.7797175388       -0.0299935007
  18
        -24.46727936
 C         -1.0551249118        1.7301405556       -0.1134355980
 C         -0.9423015234        0.4682582843        0.7408428608
 C         -1.5706196330        0.7136761680        2.1167825941
 C         -1.6809510031       -0.6895938458        0.0487751660
 O         -3.0523236304       -0.3769321053       -0.0386135243
 C          0.5186233679        0.0943436829        0.9712397154
 Br         1.4872948185       -0.3364633187       -0.6659086701
 H         -0.5927659221        2.5765765857        0.3901601581
 H         -2.1039822794        1.9540242948       -0.2860780557
 H         -0.5701482171        1.5904751435       -1.0775522684
 H         -1.0939615913        1.5559221167        2.6126962891
 H         -1.4732485216       -0.1658591582        2.7501221389
 H         -2.6268751077        0.9303776699        1.9885517593
 H         -1.5360865992       -1.6143059780        0.6297745103
 H         -1.2602791561       -0.8437394847       -0.9542959220
 H         -3.4967890301       -1.0702415465       -0.5349598481
 H          0.6075304374       -0.7884302303        1.6044189783
 H          1.0610420066        0.9233892245        1.4243360731
  18
        -24.46715766
 C         -1.2014704646        1.4918039163       -0.6601029734
 C         -1.1795949858        0.3091776685        0.3073876043
 C         -0.8713762357        0.7808936392        1.7281143683
 C         -2.5713794910       -0.3709788660        0.3124836207
 O         -2.9934314209       -0.8438146466       -0.9409587823
 C         -0.1573939210       -0.7318650246       -0.1477204394
 Br         1.6866772496       -0.0910527216       -0.0852497171
 H         -1.5509292330        1.1693869571       -1.6388610970
 H         -0.2097189644        1.9263680905       -0.7633125004
 H         -1.8765820200        2.2611755483       -0.2943504530
 H         -1.6530344544        1.4492965041        2.0805185154
 H          0.0734475977        1.3186192271        1.7549475350
 H         -0.8081468806       -0.0633550774        2.4128654847
 H         -3.3175653562        0.3716969852        0.6043129957
 H         -2.5817655517       -1.1788426989        1.0580791820
 H         -2.4942028085       -1.6322803596       -1.1767785794
 H         -0.3214769973       -1.0180569867       -1.1868468983
 H         -0.1809279342       -1.6162520837        0.4907110470
  18
        -24.46708092
 C         -1.1788485606        2.6142501803       -0.5035270465
 C         -0.8589914841        1.2047838632        0.0108741093
 C         -0.8985615930        1.1895171839        1.5380736236
 C         -1.9209255461        0.2310412719       -0.5611979721
 O         -2.0777012979       -0.9673733264        0.1421667091
 C          0.5444950104        0.8788811674       -0.4998036950
 Br         1.1970896380       -0.9053546590       -0.0281226677
 H         -1.2232572457        2.6289232393       -1.5908461948
 H         -0.4207805111        3.3240686307       -0.1789468097
 H         -2.1401162747        2.9422037379       -0.1170096062
 H         -0.1989452704        1.9169243317        1.9452439520
 H         -0.6450718471        0.2051530977        1.9248592118
 H         -1.8991704517        1.4345721434        1.8841800406
 H         -1.6967839626        0.0389842927       -1.6225324708
 H         -2.8993453746        0.7160173614       -0.5081575889
 H         -1.2637206966       -1.4841982831        0.0900525918
 H          1.2757259072        1.5693564563       -0.0801312978
 H          0.5857696699        0.9255406421       -1.5882886182
  18
        -24.46605108
 C         -0.7081574118        1.9549275884       -0.1573486964
 C         -0.9044804771        0.8254878001        0.8556422766
 C         -1.2262952985        1.4297223210        2.2280367347
 C         -2.0896256413       -0.0775440992        0.4448248062
 O         -1.8424463504       -0.9181625356       -0.6454910183
 C          0.3700979479       -0.0041918961        1.0196557912
 Br         1.1997210438       -0.5697664181       -0.6530075803
 H          0.1543026784        2.5607864276        0.1139049780
 H         -1.5860965689        2.5972800425       -0.1767387979
 H         -0.5417258605        1.5691299911       -1.1612718849
 H         -2.1809178308        1.9491492763        2.1920923934
 H         -0.4593937427        2.1430190980        2.5217795633
 H         -1.2875254224        0.6549373231        2.9893566177
 H         -2.9668186360        0.5601432839        0.2575458126
 H         -2.3326306662       -0.7506393110        1.2727162343
 H         -1.6432152851       -0.3891108817       -1.4265577089
 H          0.1653555230       -0.9204146177        1.5722400882
 H          1.1370441186        0.5728297504        1.5357322140
  18
        -24.46570738
 C         -1.2341246580        1.3604832027       -0.5332183202
 C         -1.1322366950       -0.0607431754        0.0188662356
 C         -1.1246319996       -0.0368168986        1.5467485632
 C         -2.3449066119       -0.8798355662       -0.4674617888
 O         -3.5267184918       -0.2763965071        0.0005130621
 C          0.1127091152       -0.7634380052       -0.5188074241
 Br         1.7652801721        0.1269239359       -0.0078557658
 H         -0.4206261133        1.9775057859       -0.1592422070
 H         -2.1772841039        1.7998718695       -0.2214733689
 H         -1.1966782666        1.3551848134       -1.6214513522
 H         -0.3110760563        0.5820529253        1.9174915151
 H         -1.0090615473       -1.0425543468        1.9477523452
 H         -2.0652199434        0.3723237164        1.9040982368
 H         -2.2642524212       -1.9109971467       -0.0904169907
 H         -2.3423183027       -0.9181122096       -1.5677003588
 H         -4.2820931680       -0.7888458858       -0.3024430920
 H          0.1145160712       -0.7885829892       -1.6087715262
 H          0.1922903585       -1.7799863587       -0.1328924768
  18
        -24.46325268
 C         -0.8250362538        1.9182354342       -0.2116907220
 C         -0.8781931213        0.8405130850        0.8699143139
 C         -1.1836033727        1.4769889587        2.2311147243
 C         -1.9927032915       -0.1697799023        0.5451272316
 O         -1.8067377851       -0.6884640359       -0.7464990742
 C          0.4722323135        0.1376803972        1.0037023224
 Br         1.1754615101       -0.6151756994       -0.6477512996
 H         -1.7525368939        2.4858867036       -0.2214950280
 H         -0.6942710337        1.4591070472       -1.1880573352
 H          0.0003844662        2.6030161708       -0.0279234761
 H         -1.2098781801        0.7242152096        3.0168733778
 H         -2.1487792305        1.9768439426        2.2036305731
 H         -0.4250526628        2.2138940168        2.4844597363
 H         -2.9639114637        0.3439654423        0.6160683800
 H         -1.9810897528       -0.9742878397        1.2972004010
 H         -2.4537163881       -1.3783049135       -0.9179950930
 H          0.4112319469       -0.6927741328        1.7074024357
 H          1.2310819003        0.8426797354        1.3429849922
