  28
        -41.60539242
 C         -4.1100629320       -0.3492042147       -1.0719928338
 C         -3.4112833261        0.3796737755        0.0741757002
 C         -3.8413559093       -0.1858849460        1.4301473209
 C         -1.9072096953        0.2382910977       -0.0471482417
 O         -1.4956992435       -0.9943238185       -0.1738814582
 O         -1.1581476832        1.1994375682       -0.0080361181
 H         -5.1878548884       -0.2465735501       -0.9726320134
 H         -3.8539444490       -1.4053363860       -1.0538892643
 H         -3.8093176943        0.0660401435       -2.0312250835
 H         -3.6415332789        1.4485694400        0.0351743971
 H         -3.3456563016        0.3431012149        2.2412168912
 H         -3.5858913608       -1.2410101922        1.4915644551
 H         -4.9162765653       -0.0772578276        1.5512658191
 H         -0.4921706918       -1.0611830930       -0.2416342232
 C          4.1565483209        1.0838750439       -0.1953205934
 C          3.4087783066       -0.2409478308       -0.2720252267
 C          3.8159997058       -1.1860838229        0.8629358904
 C          1.9021702892       -0.0645195122       -0.2281380769
 O          1.4922026211        1.1631959639       -0.0683235565
 O          1.1475230599       -1.0180369051       -0.3316348156
 H          3.8616507606        1.7410679664       -1.0089186262
 H          5.2273529417        0.9063117332       -0.2593197877
 H          3.9414861080        1.5869834545        0.7438137546
 H          3.6288750230       -0.7362722557       -1.2250537259
 H          3.6294603346       -0.7192469493        1.8277698594
 H          4.8746113055       -1.4212712516        0.7901059224
 H          3.2448428946       -2.1091944408        0.8051130265
 H          0.4866388135        1.2356430074       -0.0423147823
