  28
        -41.60545948
 C         -3.9676425287        0.9404234744       -1.0107439613
 C         -3.4285287037        0.2496523660        0.2380834021
 C         -3.9669310989       -1.1804941797        0.3550040521
 C         -1.9166179084        0.1590015800        0.1851481291
 O         -1.3468919803        0.3423545186        1.3472985370
 O         -1.3027499552       -0.0910432696       -0.8365079920
 H         -5.0544789030        0.9329349674       -1.0031597991
 H         -3.6163521994        0.4219453274       -1.8994338453
 H         -3.6261313163        1.9719040510       -1.0565817078
 H         -3.6987921070        0.8107572873        1.1366538414
 H         -3.5820403035       -1.6631464704        1.2505131948
 H         -3.6686724074       -1.7630341115       -0.5139051181
 H         -5.0526167112       -1.1631546657        0.4082157956
 H         -0.3445077093        0.2406090697        1.3090666744
 C          3.9931787331       -0.2373186631       -1.3504327827
 C          3.4050903113       -0.3476735749        0.0520290897
 C          4.0341421271        0.6598369277        1.0146280763
 C          1.8945975773       -0.1903596269        0.0587357244
 O          1.3233449352       -0.3470397050       -1.1047961062
 O          1.2748960271        0.0384817993        1.0839684004
 H          3.5569357449       -0.9806193136       -2.0115697097
 H          5.0688876994       -0.3905916337       -1.3110449391
 H          3.7976505768        0.7479528577       -1.7666181675
 H          3.5896288049       -1.3582462941        0.4397780097
 H          3.9152262871        1.6710510312        0.6317299270
 H          5.0949291464        0.4550104225        1.1318557687
 H          3.5523366751        0.5999706899        1.9868784835
 H          0.3204051458       -0.2570174237       -1.0575090542
