  28
        -41.60623071
 C         -3.9736524639       -0.9629243281        0.8071436709
 C         -3.4228053352       -0.0099444687       -0.2557904614
 C         -3.9148168323        1.4179198465       -0.0219342085
 C         -1.9084744880       -0.0509012573       -0.2106616813
 O         -1.3963243234        0.4192850644        0.8951272865
 O         -1.2405192531       -0.4964358193       -1.1276896897
 H         -3.6269820157       -1.9784873822        0.6288728755
 H         -5.0604778026       -0.9579208948        0.7799327754
 H         -3.6453468571       -0.6488697412        1.7949099453
 H         -3.7278270310       -0.3520186433       -1.2492602022
 H         -3.5813617654        1.7726001726        0.9499397046
 H         -5.0012747225        1.4439692820       -0.0522357409
 H         -3.5305643157        2.0869792356       -0.7886580773
 H         -0.3900694300        0.3753760772        0.9033697737
 C          3.9137692156        1.0217799539       -0.7825864291
 C          3.4281251043       -0.2661756733       -0.1074252116
 C          3.9556374908       -0.3753707815        1.3188258846
 C          1.9130350497       -0.2357064076       -0.1231240308
 O          1.4011730684       -0.7438390062       -1.2139635258
 O          1.2464145676        0.2434298513        0.7761750537
 H          5.0003275938        1.0336937885       -0.8158830325
 H          3.5727288097        1.8897629685       -0.2223867806
 H          3.5328442380        1.0871562864       -1.7990898924
 H          3.7497082054       -1.1235453264       -0.7051897059
 H          3.6458661305       -1.3143039655        1.7714220493
 H          3.5641524671        0.4404123016        1.9213551877
 H          5.0414364745       -0.3277322491        1.3213868809
 H          0.3957125366       -0.6782238412       -1.2387908741
