  28
        -41.60616193
 C         -3.9387577894        0.4447749110       -1.3187447879
 C         -3.4240959466        0.2857047105        0.1071007880
 C         -3.9525984652       -1.0016784312        0.7504621793
 C         -1.9103683708        0.2156003750        0.1339722940
 O         -1.4018271114        0.5829487725        1.2817944249
 O         -1.2419852695       -0.1703167006       -0.8076630335
 H         -3.5905453084        1.3802832536       -1.7497863279
 H         -5.0255246638        0.4384418380       -1.3277640215
 H         -3.5750293656       -0.3717774356       -1.9373399491
 H         -3.7261058300        1.1373730921        0.7234315955
 H         -3.6362692851       -1.8674809842        0.1725924171
 H         -5.0391710896       -0.9806242427        0.7784875963
 H         -3.5787137351       -1.1009832872        1.7666926182
 H         -0.3986562877        0.4912727732        1.3087674846
 C          3.9514030377       -1.3721559276       -0.2611806848
 C          3.4234585556       -0.0384625884        0.2638218374
 C          3.9475508294        1.1301246265       -0.5749509002
 C          1.9087411635       -0.0126009083        0.2219076151
 O          1.4019164024       -0.3274624340       -0.9400011384
 O          1.2358618011        0.2972213142        1.1898688724
 H          5.0382750305       -1.3756644973       -0.2341466910
 H          3.6244920246       -1.5254854823       -1.2863189553
 H          3.5868611436       -2.1961529714        0.3480253546
 H          3.7221058852        0.0990996953        1.3073402821
 H          3.6284076981        1.0194396308       -1.6085014047
 H          5.0340812587        1.1493335572       -0.5430949866
 H          3.5724750259        2.0763862882       -0.1911762213
 H          0.3955512384       -0.2882061260       -0.9449664747
