  28
        -41.60629883
 C         -4.0852021387       -0.0869472998       -1.1815613101
 C         -3.4146058585        0.3230184492        0.1243453760
 C         -3.8345329528       -0.5944313408        1.2786621816
 C         -1.9056333456        0.2412459714        0.0090294873
 O         -1.2854445089        1.0356019161        0.8434988135
 O         -1.3330708998       -0.5081441909       -0.7606693483
 H         -5.1659204167       -0.0785445359       -1.0666440814
 H         -3.7670338148       -1.0874659832       -1.4633258309
 H         -3.8131237285        0.5956905001       -1.9829034919
 H         -3.6708662831        1.3545393527        0.3823664843
 H         -3.3499661472       -0.2898938279        2.2032165898
 H         -3.5592078548       -1.6237710670        1.0591317925
 H         -4.9117915660       -0.5444845474        1.4161209136
 H         -0.2835350109        0.9446036296        0.7926186229
 C          4.0893117089        1.1513593147        0.1786255758
 C          3.4163200009       -0.1257981610       -0.3110330017
 C          3.8230824357       -1.3319371043        0.5434540683
 C          1.9075224518       -0.0069314109       -0.2318820923
 O          1.2882027383       -0.7497516512       -1.1129090607
 O          1.3343489834        0.6859769086        0.5886821873
 H          5.1693476132        1.0298001538        0.1782898853
 H          3.7591182753        1.3796000566        1.1888818531
 H          3.8315927757        1.9906854506       -0.4628001122
 H          3.6790993881       -0.3257014573       -1.3536087967
 H          3.3385858799       -2.2360972352        0.1825736463
 H          3.5380060617       -1.1696534312        1.5806981305
 H          4.9003051602       -1.4707136977        0.4962672881
 H          0.2858588689       -0.6998225469       -1.0257670785
