%nprocshared=4
%mem=8000mb
%chk=dimer.chk
%nprocshared=4
%mem=8000mb
#T wB97XD/def2svpp opt=tight freq int(grid=ultrafine) scf=(verytight,qc) Volume=tight

Dimer

0 1
 C         -3.9168102915        0.9136851083       -0.9400711010
 C         -3.4069941633        0.2125078072        0.3235700581
 C         -4.0303658480       -1.1720031461        0.4736593158
 C         -1.8999859721        0.1050082848        0.2041128932
 O         -1.2615953786        1.0435221621        0.8529711096
 O         -1.3472704542       -0.7554498173       -0.4568920181
 H         -3.6609330833        0.3275086490       -1.8199358587
 H         -3.4733648723        1.9022493007       -1.0356842161
 H         -4.9976845959        1.0202075417       -0.8929818646
 H         -3.6304249055        0.8325009939        1.1958807449
 H         -3.7265945816       -1.8048018901       -0.3565859846
 H         -5.1145317549       -1.0954681937        0.4818881114
 H         -3.7066732107       -1.6403877426        1.4002536869
 H         -0.2619538419        0.9852458770        0.7379281281
 C          4.0326131909        1.1757153731       -0.4570189367
 C          3.4070266402       -0.2095850268       -0.3254644735
 C          3.9143417141       -0.9279922944        0.9295625456
 C          1.9000577590       -0.1021566470       -0.2056911588
 O          1.2616877357       -1.0400997146       -0.8554616862
 O          1.3473005551        0.7573670574        0.4564683947
 H          3.7112276469        1.6561914207       -1.3781974802
 H          5.1166755291        1.0977708568       -0.4642474268
 H          3.7281967674        1.7985442268        0.3804937155
 H          3.6305046585       -0.8189013667       -1.2052709437
 H          3.6590787599       -0.3526652205        1.8167523413
 H          4.9950286247       -1.0361045246        0.8819140115
 H          3.4687754787       -1.9167785618        1.0120289929
 H          0.2621234079       -0.9824278462       -0.7396645820


