%chk=8.chk
%nprocshared=4
%mem=8000mb
#T wB97XD/def2svpp opt=tight freq int(grid=ultrafine) scf=(verytight,qc) Volume=tight

Monomer

0 1
 C         -1.2750335632        0.2515133264        0.0157773951
 C          0.0145674621       -0.5610900404       -0.0327516611
 O          1.1686763122        0.2414655491        0.0563070866
 H         -2.1344450320       -0.4130573252        0.0070260536
 H         -1.3404318928        0.9159094464       -0.8450208289
 H         -1.3032464670        0.8528050901        0.9213885854
 H          0.0398712870       -1.1639726917       -0.9531706436
 H          0.0683760699       -1.2379611363        0.8228944292
 H          1.1391076563        0.9024349707       -0.6446561333


