%chk=43.chk
%nprocshared=4
%mem=8000mb
#T wB97XD/def2svpp opt=(calcall,tight) int(grid=ultrafine) scf=(verytight,qc) Volume=tight

Monomer

0 1

C       -0.000339    0.000257    1.910528
C       -0.000057    0.000031    0.409318
N        1.059486    0.937316   -0.164831
O        2.129810    0.886731    0.381607
O        0.738433    1.616937   -1.100955
N        0.282048   -1.386200   -0.164688
O        1.031975   -1.448146   -1.100122
O       -0.297745   -2.287688    0.381137
N       -1.341425    0.448790   -0.165160
O       -1.833290    1.400608    0.381530
O       -1.768809   -0.168701   -1.101818
H        0.980666   -0.341285    2.271200
H       -0.786807   -0.678516    2.270848
H       -0.195235    1.020800    2.270600



