  34
        -66.00138733
 Cl        -1.0110495291       -1.3035709980        1.4013377695
 C         -2.5298800421       -1.5195902614        0.5138156219
 C         -2.9127262255       -0.2746537182       -0.2961479495
 C         -4.2377473251       -0.5484298495       -1.0193748605
 Cl        -5.5446838347       -0.9682943792        0.1132589582
 C         -3.0534402932        0.9201235404        0.6556627685
 Cl        -3.4905736356        2.4087468344       -0.2126397533
 C         -1.8392641069        0.0494113241       -1.3431102835
 Cl        -1.5371907776       -1.3231918160       -2.4336115348
 H         -3.2973335397       -1.7471685737        1.2530183104
 H         -2.3882755121       -2.3712080260       -0.1518417443
 H         -4.1320556670       -1.3839960552       -1.7104149216
 H         -4.5605645636        0.3431801806       -1.5568440735
 H         -2.1120184562        1.1192982738        1.1670215558
 H         -3.8448856794        0.7324380137        1.3815829236
 H         -0.8959624932        0.2898793534       -0.8541861207
 H         -2.1517757727        0.8876422386       -1.9642607537
 Cl         1.8590373100       -0.2301770310       -2.1973757030
 C          2.1000897502       -0.7471092469       -0.5113842272
 C          2.9193735349        0.2729218524        0.2901662403
 C          2.9855214844       -0.1880589724        1.7518139731
 Cl         3.7217010452       -1.7998716601        1.9040141892
 C          4.3259812833        0.3587589564       -0.3161421185
 Cl         5.3479091875        1.5465856335        0.5279885418
 C          2.2760677174        1.6640583488        0.2321895253
 Cl         0.6409911853        1.6750151486        0.9148187110
 H          2.6124323443       -1.7076787948       -0.5430140594
 H          1.1139558536       -0.8753696383       -0.0646566271
 H          1.9852959307       -0.2563506481        2.1792925104
 H          3.5993853723        0.4975956315        2.3363002818
 H          4.2748559444        0.6650707914       -1.3604429744
 H          4.8284032298       -0.6048858215       -0.2329298032
 H          2.1886712044        1.9951137964       -0.8027430774
 H          2.8624809923        2.3818321076        0.8049129825
