  34
        -66.00166267
 Cl        -4.7509542823       -0.6708385039        2.4211089401
 C         -3.6659677345       -1.1990226395        1.1128720903
 C         -2.9015054699       -0.0239636961        0.4904193353
 C         -1.9884892080       -0.5552055581       -0.6210705405
 Cl        -2.9045883624       -1.4005658380       -1.8907844130
 C         -3.9090937076        0.9830639253       -0.0793776983
 Cl        -3.1008395729        2.3953224231       -0.8025937259
 C         -2.0421684512        0.6817154669        1.5466212353
 Cl        -0.8469415274       -0.4147026029        2.2732194694
 H         -4.2847417701       -1.6938556110        0.3654658242
 H         -2.9679855440       -1.9146603337        1.5479537973
 H         -1.2674457853       -1.2679079267       -0.2223916672
 H         -1.4691597751        0.2738425778       -1.1017826008
 H         -4.5660311681        1.3575445887        0.7044831621
 H         -4.4985120017        0.5167075781       -0.8686602275
 H         -2.6699690512        1.0454660696        2.3601362211
 H         -1.4896666417        1.5075770816        1.1009308526
 Cl         4.8398212225        0.5235045141        1.3717445759
 C          3.8725006574       -0.6593108333        0.4602245905
 C          2.8856467816        0.0233929177       -0.4964788452
 C          2.0988970929       -1.0509212841       -1.2581836639
 Cl         1.2441713502       -2.1574596791       -0.1590509146
 C          1.9379587411        0.9052314889        0.3252523476
 Cl         0.7774736694        1.7765312515       -0.7039193505
 C          3.6375831644        0.8975972902       -1.5093008194
 Cl         4.7717991954       -0.0531485260       -2.4978218421
 H          3.3415000796       -1.2661935821        1.1925960338
 H          4.5733268408       -1.2772213089       -0.1012066625
 H          2.7691104336       -1.6598793198       -1.8636501146
 H          1.3441674731       -0.5861575768       -1.8924735574
 H          2.4975973364        1.6592267419        0.8773854497
 H          1.3540792553        0.2936518560        1.0139511034
 H          4.2273889785        1.6516729323       -0.9880706827
 H          2.9425907671        1.3772068293       -2.1974965291
