  34
        -66.00157619
 Cl        -2.9255161762       -3.1484049470       -0.0437238033
 C         -3.8102145892       -1.6354196144       -0.3540553455
 C         -2.9291981618       -0.4003477542       -0.1269200048
 C         -3.7621158013        0.8618466608       -0.3833888873
 Cl        -5.1697295532        0.9628728947        0.7011378366
 C         -2.4094401831       -0.4213991216        1.3160557793
 Cl        -1.4152028623        0.9979637336        1.6828295490
 C         -1.7326500857       -0.4133415877       -1.0853932775
 Cl        -2.2410697156       -0.3711757770       -2.7903932844
 H         -4.6699973783       -1.6249627097        0.3146879595
 H         -4.1444815710       -1.6705829161       -1.3909459196
 H         -4.1439687760        0.8693739184       -1.4033894938
 H         -3.1594828859        1.7531128375       -0.2068752192
 H         -1.7849447661       -1.2971853539        1.4884216139
 H         -3.2444014563       -0.4101277614        2.0170889662
 H         -1.1595375964       -1.3298815884       -0.9474200198
 H         -1.0975060451        0.4570309067       -0.9239367804
 Cl         4.5542597123        1.4191644910        2.0815128609
 C          3.6693059614        0.0302713333        1.4073972845
 C          2.9248041791        0.3969475167        0.1166446097
 C          2.1965755106       -0.8442757603       -0.4140041205
 Cl         1.0656545938       -1.5138653360        0.7802338717
 C          1.9260357193        1.5191539525        0.4251999509
 Cl         1.0260341039        2.0254517827       -1.0208097936
 C          3.9117645117        0.8840251007       -0.9528090140
 Cl         5.1113466138       -0.3629327861       -1.3698221912
 H          2.9710990996       -0.3027180722        2.1744110348
 H          4.4056210689       -0.7483941677        1.2077746819
 H          2.9081242261       -1.6334858859       -0.6541926905
 H          1.6128653754       -0.5867862304       -1.2979955493
 H          2.4433134429        2.4012924745        0.8003493428
 H          1.1859593580        1.1843491419        1.1526343561
 H          4.4669359738        1.7467947207       -0.5846898654
 H          3.3875423220        1.1415870181       -1.8723570425
