  34
        -66.00144848
 Cl        -1.5823920047        0.6971297194        2.4991879846
 C         -1.8636161197       -0.4848633087        1.1992808058
 C         -2.9157450803        0.0039584315        0.1952325233
 C         -3.0092738450       -1.0091981831       -0.9527761495
 Cl        -3.4392188360       -2.6322961582       -0.3675014363
 C         -4.2624769677        0.1301080693        0.9189872491
 Cl        -5.5488064049        0.7270315937       -0.1566315498
 C         -2.5379345929        1.3760316927       -0.3768447452
 Cl        -0.9894807856        1.3429363119       -1.2373700438
 H         -2.1898005807       -1.4090510350        1.6742882235
 H         -0.9111734635       -0.6515688622        0.6969507059
 H         -2.0509134660       -1.1022279187       -1.4633181708
 H         -3.7852498037       -0.7102410175       -1.6577419329
 H         -4.1870859495        0.8322406305        1.7486130836
 H         -4.5837940080       -0.8458579692        1.2826524495
 H         -2.4361421188        2.1039305347        0.4282350247
 H         -3.2885016726        1.7126781049       -1.0912997539
 Cl         1.8890059519       -0.2459910831        2.3517221565
 C          1.9963847872        0.6764875838        0.8339431239
 C          2.9172704828       -0.0029214249       -0.1881194238
 C          2.8570658516        0.7823488528       -1.5045061544
 Cl         3.3411180871        2.4789421800       -1.2840143276
 C          4.3454856956       -0.0150521813        0.3717882714
 Cl         5.4900617452       -0.8193828112       -0.7286336470
 C          2.4815519440       -1.4503748684       -0.4477990025
 Cl         0.8361497406       -1.5510566706       -1.0972928895
 H          2.3731648522        1.6661997182        1.0884157450
 H          0.9872769862        0.7646321147        0.4325191707
 H          1.8415845643        0.7934263006       -1.9000760238
 H          3.5417735689        0.3492457888       -2.2339870939
 H          4.3810057959       -0.5518566762        1.3191929888
 H          4.7024583542        1.0059263692        0.5063383774
 H          2.4886428744       -2.0177606995        0.4829484944
 H          3.1382441292       -1.9229562113       -1.1776025915
