  34
        -66.00119215
 Cl        -4.7673101142        1.2451446663        2.2124239150
 C         -3.4757310303        1.7471466016        1.0956988492
 C         -2.9121877365        0.5621957132        0.2995003183
 C         -1.8170256951        1.0702712707       -0.6462445539
 Cl        -0.4955299917        1.8640928992        0.2389300537
 C         -2.3444645853       -0.4683023400        1.2842919561
 Cl        -1.7131415011       -1.9093500999        0.4534583968
 C         -4.0168530059       -0.0969082738       -0.5369857096
 Cl        -4.7362717621        1.0406261296       -1.7010528218
 H         -2.6974927196        2.2120352201        1.6999317653
 H         -3.9113336921        2.4810968121        0.4176044449
 H         -2.2197199219        1.8069886510       -1.3401399479
 H         -1.3766791624        0.2414969258       -1.2011550763
 H         -3.1196230443       -0.8104197096        1.9687953838
 H         -1.5168978100       -0.0366183534        1.8480995602
 H         -4.8233943777       -0.4409526879        0.1104342655
 H         -3.6178522301       -0.9308768953       -1.1129788685
 Cl         2.2431151412        0.1485240047        2.2579245674
 C          3.3667560855       -0.6856115931        1.1604050454
 C          2.9310007691       -0.5631612184       -0.3055572498
 C          3.9210199232       -1.3294714962       -1.1917229433
 Cl         4.0216573252       -3.0501585145       -0.7476205217
 C          1.5199987463       -1.1442892155       -0.4452455332
 Cl         0.8970642197       -1.0022862554       -2.1025176627
 C          2.9112334178        0.9090389131       -0.7363724206
 Cl         4.5172657968        1.6624467043       -0.6028833868
 H          3.3953981643       -1.7302060621        1.4677303795
 H          4.3460603690       -0.2278266467        1.3004963091
 H          4.9240028825       -0.9155901735       -1.0960670985
 H          3.6008805715       -1.2894193606       -2.2331756956
 H          0.8262925195       -0.6118459810        0.2021694235
 H          1.5201873072       -2.2060394697       -0.1990332566
 H          2.2371476309        1.4781552698       -0.0961710179
 H          2.6011101147        1.0029821385       -1.7763079768
