  34
        -66.00167496
 Cl        -4.2036220769       -0.7799097365        2.7933938426
 C         -3.5021117190        0.5362977138        1.8230470906
 C         -2.8865281691        0.0195431984        0.5156429849
 C         -2.3181011624        1.2047236225       -0.2752844146
 Cl        -1.1176751969        2.1199328678        0.6657130655
 C         -1.7775074661       -0.9821950763        0.8584580180
 Cl        -1.0326079025       -1.6761380690       -0.5994867272
 C         -3.9518803044       -0.6800961622       -0.3393433845
 Cl        -5.2859222167        0.4163197580       -0.7703292980
 H         -2.7452747687        1.0171683490        2.4415611324
 H         -4.3094241041        1.2360859777        1.6069563218
 H         -3.1105821149        1.9024991725       -0.5427727889
 H         -1.8153262606        0.8507658549       -1.1752371741
 H         -2.1775898210       -1.8152706082        1.4350037026
 H         -0.9804915999       -0.4895795300        1.4163344503
 H         -4.3905697021       -1.5102176136        0.2143906448
 H         -3.5228091410       -1.0399433466       -1.2737108573
 Cl         1.5833847930       -0.0424983536        1.8827410888
 C          2.4424262258       -0.9374575066        0.6111962920
 C          2.8996820872       -0.0180342733       -0.5279559817
 C          3.6458850230       -0.8583459814       -1.5723385934
 Cl         2.6295416692       -2.1691703569       -2.2198823057
 C          1.6680572083        0.6458394272       -1.1550148275
 Cl         2.1054340322        1.7438619650       -2.4853240509
 C          3.8398333513        1.0723334647        0.0011348544
 Cl         5.2976526042        0.3867611416        0.7577450608
 H          1.7584250796       -1.6984368271        0.2383058474
 H          3.3047375948       -1.4067294688        1.0849277996
 H          4.5279372805       -1.3240057255       -1.1346752318
 H          3.9345890455       -0.2339629125       -2.4177954164
 H          1.1316513581        1.2405451233       -0.4164631251
 H          1.0097807880       -0.1153451673       -1.5737528514
 H          3.3357734332        1.6673561867        0.7630840283
 H          4.1747508429        1.7175609450       -0.8099639901
