  34
        -66.00123763
 Cl        -1.2093194727        1.1533125358        1.9912198910
 C         -2.2845638652       -0.0933066395        1.3159851526
 C         -2.9381449247        0.3592031157        0.0036512278
 C         -3.8898170132       -0.7444711626       -0.4782726523
 Cl        -5.1722391095       -1.0821080066        0.7083405824
 C         -3.7086877628        1.6636158812        0.2477310582
 Cl        -4.5134441344        2.2455302613       -1.2289324224
 C         -1.8753582895        0.6111420136       -1.0730562100
 Cl        -0.9578997399       -0.8625166649       -1.4533928027
 H         -3.0434884593       -0.2995244304        2.0696321436
 H         -1.6769631817       -0.9835182147        1.1493986794
 H         -3.3508596266       -1.6779932683       -0.6360615973
 H         -4.3841033469       -0.4373895571       -1.4000065633
 H         -3.0343661868        2.4541077334        0.5745532832
 H         -4.4884527013        1.5051610714        0.9925914064
 H         -1.1560183599        1.3563616411       -0.7325245326
 H         -2.3394696118        0.9425829706       -2.0011031660
 Cl         4.7065430520        0.8879515036        1.7242066637
 C          4.3067630337        0.3850952133        0.0641946013
 C          2.9669243224       -0.3581395297       -0.0053534168
 C          2.7017447990       -0.7737944089       -1.4580185186
 Cl         3.9851515024       -1.8299244917       -2.0922208713
 C          3.0273152880       -1.5939251010        0.9019436406
 Cl         1.4906153840       -2.4878927021        0.9077235838
 C          1.8242598854        0.5429298931        0.4746339325
 Cl         1.6188314542        1.9767008507       -0.5541511571
 H          5.1197900000       -0.2523309130       -0.2809816187
 H          4.2636978592        1.2918523478       -0.5396166786
 H          2.6582764679        0.0994106553       -2.1076251630
 H          1.7672805764       -1.3309631948       -1.5245229980
 H          3.2312892949       -1.3056605885        1.9323510392
 H          3.7939276917       -2.2831773060        0.5476113567
 H          2.0236447566        0.9041832634        1.4834228735
 H          0.8821354310       -0.0004802217        0.4528096942
