  34
        -66.00126732
 Cl        -1.0659230276       -1.4720745333        1.3601478175
 C         -2.5960774450       -1.5996367806        0.4747345804
 C         -2.9384257231       -0.3098964453       -0.2811919579
 C         -4.2861218891       -0.4980465014       -0.9897513334
 Cl        -5.5928846916       -0.8914427513        0.1523484280
 C         -3.0124899104        0.8536939174        0.7158285695
 Cl        -3.4043191211        2.3898434140       -0.0886230405
 C         -1.8662143499        0.0027812342       -1.3325190265
 Cl        -1.6848962007       -1.3176036491       -2.5107917971
 H         -3.3668559501       -1.8311039243        1.2092799114
 H         -2.4873609812       -2.4270335184       -0.2267790673
 H         -4.2317476156       -1.3154340753       -1.7077685985
 H         -4.5743143265        0.4242486637       -1.4940637477
 H         -2.0550357915        0.9963487969        1.2157788999
 H         -3.7975983056        0.6709502368        1.4498280298
 H         -0.8977297751        0.1416669200       -0.8534454579
 H         -2.1299824228        0.8978785340       -1.8940240013
 Cl         1.7385907425       -0.5211638769       -2.0469285757
 C          2.1498607702       -0.8435502524       -0.3450048441
 C          2.9515230923        0.3068120854        0.2776524120
 C          3.1960054447       -0.0062451855        1.7594444945
 Cl         4.0819020061       -1.5334462585        1.9764663881
 C          4.2824081891        0.4440760733       -0.4729718148
 Cl         5.2729130297        1.7803630316        0.1604374398
 C          2.1856357570        1.6308562635        0.1651886778
 Cl         0.6277105216        1.5734233062        1.0090789262
 H          2.7283107376       -1.7661572335       -0.3266881261
 H          1.2123853421       -0.9888126748        0.1929096934
 H          2.2508769477       -0.1106408687        2.2917766740
 H          3.8000707918        0.7783818435        2.2155706823
 H          4.1079084384        0.6479035676       -1.5288455087
 H          4.8710578814       -0.4662418461       -0.3599712299
 H          1.9715981129        1.8539258033       -0.8801535243
 H          2.7571135276        2.4445571314        0.6104305327
