  34
        -66.00143119
 Cl        -0.8968718967        0.9435163397        1.9155208736
 C         -1.9086569700       -0.4446730307        1.4614197157
 C         -2.9345472339       -0.0802232798        0.3811616891
 C         -3.7728297021       -1.3242326612        0.0581730843
 Cl        -4.6269731786       -1.9414826901        1.4920449371
 C         -3.8307455627        1.0509994101        0.9028697045
 Cl        -5.0537519493        1.5380763571       -0.2948159026
 C         -2.2321265629        0.3953852258       -0.8970067134
 Cl        -1.1862456376       -0.8639618386       -1.5895064358
 H         -2.4093235358       -0.7801193333        2.3687789463
 H         -1.2323876035       -1.2204726933        1.1013093231
 H         -3.1392439391       -2.1320068022       -0.3061192980
 H         -4.5336419193       -1.0813396632       -0.6837263024
 H         -3.2396452784        1.9369149276        1.1321456852
 H         -4.3707252059        0.7215865113        1.7906324238
 H         -1.5980873151        1.2552403471       -0.6804887967
 H         -2.9631390183        0.6570166706       -1.6610290529
 Cl         1.3616140714       -1.8093130331        0.8137725908
 C          2.5750476570       -1.4011581350       -0.4092153616
 C          2.9337567410        0.0902083056       -0.3887994304
 C          4.0210518347        0.3530063834       -1.4380787748
 Cl         3.4991752287       -0.1288591343       -3.0699753284
 C          1.6740532462        0.9057075503       -0.7011515141
 Cl         1.9925534742        2.6566134332       -0.7001283076
 C          3.4605301878        0.5014962640        0.9917529445
 Cl         4.9168939515       -0.4135321132        1.4484706958
 H          2.1577353289       -1.6837510257       -1.3751041226
 H          3.4572254007       -2.0034741258       -0.1903598952
 H          4.9228757349       -0.2139153338       -1.2100782558
 H          4.2507248477        1.4177176230       -1.4803253573
 H          0.9083118629        0.7256560985        0.0521632974
 H          1.2988861095        0.6505404435       -1.6920235060
 H          2.7076004213        0.3057005384        1.7556261783
 H          3.7303157786        1.5566918724        1.0007593015
