  34
        -66.00110180
 Cl        -1.8627173654        1.3441453534        2.4409256701
 C         -1.8902407604        0.0726469821        1.1960298314
 C         -2.9536945024        0.3376809502        0.1234870498
 C         -2.9385142623       -0.8171899415       -0.8866368113
 Cl        -3.2861619084       -2.3790144458       -0.1118620688
 C         -4.3286251115        0.4452330818        0.7952609492
 Cl        -5.6236992596        0.7630223508       -0.3827876285
 C         -2.6565829181        1.6522513561       -0.6082272877
 Cl        -1.1168678918        1.5947032946       -1.4830167097
 H         -2.0853510113       -0.8701671379        1.7049595434
 H         -0.8999764820        0.0552064405        0.7417630931
 H         -1.9586239660       -0.9100765560       -1.3535677637
 H         -3.7047437680       -0.6623786583       -1.6464692606
 H         -4.3427894466        1.2632116844        1.5143203439
 H         -4.5754510421       -0.4930182640        1.2919587508
 H         -2.5824674429        2.4705103574        0.1086639677
 H         -3.4305793801        1.8682625876       -1.3441794190
 Cl         1.4720539102        1.4636221909        1.3145282798
 C          2.2391746876        1.0101038155       -0.2250425693
 C          2.9791620535       -0.3298116024       -0.1227634171
 C          3.5734343056       -0.6768749490       -1.4939295603
 Cl         4.6916546882        0.5810122719       -2.0709901649
 C          4.0894492590       -0.2040859002        0.9284797316
 Cl         4.9838710425       -1.7283013748        1.1401847208
 C          2.0198140897       -1.4482016652        0.3032919014
 Cl         0.6874235340       -1.6563055527       -0.8513672952
 H          2.9300673701        1.8109774942       -0.4844539329
 H          1.4439573138        0.9528474877       -0.9688478142
 H          2.7874011871       -0.7699760677       -2.2425877897
 H          4.1440337896       -1.6038020407       -1.4322312431
 H          3.6713183031        0.0587156493        1.8994734117
 H          4.8149555074        0.5477436742        0.6179414412
 H          1.5719031581       -1.2110031148        1.2683850884
 H          2.5419608684       -2.4025534722        0.3605508246
