  34
        -66.00220434
 Cl        -1.1709991599       -0.0505547314        2.0114809430
 C         -2.1647401408       -0.9384323078        0.8411457383
 C         -3.0381290175        0.0002242297       -0.0000757967
 C         -3.9131149414       -0.8465987978       -0.9339042825
 Cl        -4.9780446927       -1.9493961449       -0.0303572426
 C         -3.9123152660        0.8474624754        0.9341487520
 Cl        -4.9787178455        1.9492662685        0.0311577054
 C         -2.1648036246        0.9386497364       -0.8416193686
 Cl        -1.1709514342        0.0504364221       -2.0117058611
 H         -2.7824434219       -1.6307124640        1.4121776644
 H         -1.4761258330       -1.4925370962        0.2024888321
 H         -3.2963183745       -1.4646589669       -1.5853460793
 H         -4.5580949700       -0.2017022858       -1.5308888304
 H         -3.2949372929        1.4662731958        1.5843500549
 H         -4.5563209321        0.2027772650        1.5324439736
 H         -1.4761344981        1.4929588768       -0.2031692091
 H         -2.7825791555        1.6307370797       -1.4128472036
 Cl         4.9774875779       -0.0263803461        1.9497758287
 C          3.9120272176       -0.9322928064        0.8494391824
 C          3.0377191540       -0.0002238468       -0.0000383474
 C          2.1654822245       -0.8437186262       -0.9377234806
 Cl         1.1714548325       -2.0126470604       -0.0482652132
 C          2.1633112057        0.8424389276        0.9363573805
 Cl         1.1705850911        2.0115177528        0.0454766228
 C          3.9125301626        0.9326081647       -0.8481124104
 Cl         4.9800025074        0.0277020285       -1.9474137797
 H          3.2946509362       -1.5814626960        1.4693420324
 H          4.5566274005       -1.5316562413        0.2063483604
 H          2.7841166489       -1.4158764243       -1.6282794488
 H          1.4770727491       -0.2064666212       -1.4937256040
 H          2.7803664086        1.4145019947        1.6283761521
 H          1.4740568693        0.2046537460        1.4907055155
 H          4.5559483100        1.5321435455       -0.2040234155
 H          3.2956087019        1.5815941958       -1.4686342266
