%nprocshared=4
%mem=8000mb
%chk=1.chk
%nprocshared=4
%mem=8000mb
#T wB97XD/def2svpp opt=(tight,calcall,MaxStep=5) freq int(grid=ultrafine) scf=(verytight,qc) Volume=tight

Dimer

0 1
               17           0       -1.230654    2.103885   -0.198464
                6           0       -2.195262    0.972412    0.813364
                6           0       -3.066651   -0.000079    0.000053
                6           0       -3.936306   -0.803544    0.984212
               17           0       -5.093128    0.207538    1.913325
                6           0       -3.936988    0.803317   -0.983566
               17           0       -5.093438   -0.207847   -1.913055
                6           0       -2.195416   -0.972263   -0.813752
               17           0       -1.230353   -2.103991    0.197330
               1           0       -2.821239    1.595386    1.466542
               1           0       -1.472285    0.411682    1.423425
               1           0       -3.307615   -1.324407    1.718345
               1           0       -4.535584   -1.544429    0.436280
               1           0       -3.308732    1.325024   -1.717474
               1           0       -4.536631    1.543395   -0.434930
               1           0       -1.472713   -0.411136   -1.423766
               1           0       -2.821469   -1.595101   -1.466972
              17           0        5.094484    1.912555   -0.209221
               6           0        3.937873    0.984215    0.802823
               6           0        3.067138    0.000334    0.000190
               6           0        2.195778   -0.812246    0.973288
              17           0        1.230089    0.200090    2.103288
               6           0        2.196079    0.813595   -0.972603
              17           0        1.229561   -0.198264   -2.102359
               6           0        3.936419   -0.984526   -0.802865
              17           0        5.092112   -1.914571    0.208603
               1           0        3.310009    1.718792    1.324045
               1           0        4.537446    0.435984    1.543259
               1           0        2.821860   -1.464540    1.597086
               1           0        1.473345   -1.423144    0.412906
               1           0        2.822358    1.465483   -1.596623
               1           0        1.474121    1.424962   -0.412086
               1           0        4.536458   -0.436944   -1.543404
               1           0        3.307264   -1.718021   -1.324092


