  28
        -34.50286784
 C          3.9313551695        1.6710914167        1.0904984057
 C          3.3856472140        0.8539377638       -0.0669572342
 C          2.4439480489        1.6675573152       -0.9377331799
 C          4.4957492135        0.2136781430       -0.8810304827
 Br         2.3126660614       -0.6378566529        0.7277755623
 H          4.5261495372        2.4977081811        0.7036718047
 H          4.5652233191        1.0623915925        1.7330249316
 H          3.1228424310        2.0813586211        1.6931998916
 H          2.9904523397        2.4958765963       -1.3867901461
 H          1.6235688610        2.0752139485       -0.3499110130
 H          2.0269111477        1.0576853591       -1.7371064296
 H          5.1101848512        0.9912478824       -1.3333769320
 H          4.0870694944       -0.4079652482       -1.6759175469
 H          5.1330315356       -0.4058878345       -0.2523321772
 C         -1.8674609164       -1.5914807507        0.7031411923
 C         -1.8786163021       -0.2896882496       -0.0761024132
 C         -1.4080522350        0.8744281813        0.7763739692
 C         -1.0853536228       -0.4045801549       -1.3647419837
 Br        -3.7840795880        0.0884155455       -0.5890776800
 H         -0.8441620705       -1.8218348985        0.9979936095
 H         -2.2474970061       -2.4109298495        0.0964378280
 H         -2.4785425397       -1.5130897762        1.6000668379
 H         -0.3846442571        0.6883861928        1.0970185679
 H         -2.0308552095        0.9830076833        1.6620204194
 H         -1.4416023400        1.8066997294        0.2151525398
 H         -1.4851984560       -1.1947744940       -1.9970213744
 H         -0.0521566028       -0.6469642885       -1.1234853309
 H         -1.1105079353        0.5299863752       -1.9225768264
