  28
        -34.50273905
 C          3.3488157964        1.5133265929        1.3738463831
 C          3.5997763155        0.7649817152        0.0763892810
 C          3.3432759348        1.6395121919       -1.1383666376
 C          4.9826893550        0.1396526591        0.0423488214
 Br         2.2835430072       -0.7371097692        0.0046621063
 H          4.0565743305        2.3367617764        1.4610711003
 H          3.4759817582        0.8576102375        2.2335242760
 H          2.3404138013        1.9232339434        1.3993526750
 H          4.0435774552        2.4739217279       -1.1398338642
 H          2.3309090950        2.0397890854       -1.1236397759
 H          3.4772752270        1.0759505428       -2.0601013480
 H          5.7378572717        0.9240245127        0.0801609549
 H          5.1286805218       -0.4343754574       -0.8713036257
 H          5.1321476383       -0.5228372781        0.8934320399
 C         -1.2937311737        0.8398968784        0.8746102504
 C         -1.9358708857       -0.1980753799       -0.0274332450
 C         -1.4402123388       -0.0876287038       -1.4573946435
 C         -1.7553560750       -1.6016965929        0.5193462610
 Br        -3.9077015972        0.1849036256       -0.0530402799
 H         -0.2247632699        0.6439880496        0.9314251237
 H         -1.7077526985        0.7907961906        1.8798017719
 H         -1.4496584711        1.8445610797        0.4854828484
 H         -0.3747320614       -0.3099374023       -1.4826256609
 H         -1.6016749074        0.9147013997       -1.8499782595
 H         -1.9549957855       -0.7973013195       -2.1017372809
 H         -2.1490090553       -1.6790675900        1.5309319316
 H         -0.6928299941       -1.8425750566        0.5378248988
 H         -2.2653105386       -2.3309820095       -0.1067393624
