  28
        -34.50285891
 C          4.7076099809       -0.1088800151        0.4727894872
 C          3.5285103923        0.7842498717        0.1307616318
 C          3.8249712664        2.2461040645        0.4144072236
 C          3.0524952294        0.5711161197       -1.2958539539
 Br         2.0247831260        0.2495970390        1.3359920565
 H          5.5549603440        0.1476910048       -0.1621583345
 H          4.4619839650       -1.1573478085        0.3119218270
 H          5.0054843791        0.0196549001        1.5121298594
 H          4.6456907744        2.5802963478       -0.2192864239
 H          4.1124490323        2.3912650650        1.4543683113
 H          2.9553076224        2.8675932601        0.2075477310
 H          2.7992713402       -0.4731837238       -1.4708934517
 H          3.8440965698        0.8535331650       -1.9888146626
 H          2.1752526844        1.1795135364       -1.5089545752
 C         -1.5386456820        1.0944345616       -0.3587160297
 C         -1.8674922901       -0.3853182042       -0.2860736334
 C         -0.8600509766       -1.2258015625       -1.0488282014
 C         -2.0137976614       -0.8549710077        1.1491475754
 Br        -3.6459983361       -0.6388167527       -1.1852748722
 H         -0.5899910864        1.2722452809        0.1447767541
 H         -2.3061180388        1.6868559537        0.1352972825
 H         -1.4593136620        1.4258732708       -1.3926326583
 H          0.1122411391       -1.1336239333       -0.5687914778
 H         -0.7776000218       -0.8939019995       -2.0823282359
 H         -1.1483813525       -2.2750703191       -1.0452711497
 H         -1.0627374592       -0.7258411171        1.6651501438
 H         -2.2913161820       -1.9064957305        1.1878063585
 H         -2.7738066483       -0.2774758460        1.6716367596
