  28
        -34.50346253
 C          1.7973583628       -0.3898204599        1.2201151932
 C          2.0677270494        0.4653026005       -0.0033304844
 C          1.7845541420       -0.2904733800       -1.2877579691
 C          1.3088622765        1.7775878104        0.0524897681
 Br         4.0240316350        0.9103198263        0.0043814951
 H          0.7392992468       -0.6473492889        1.2413864176
 H          2.0451349281        0.1476408126        2.1332541579
 H          2.3806386872       -1.3079987138        1.1900211768
 H          0.7260592561       -0.5454645056       -1.3187174254
 H          2.3674165211       -1.2081810603       -1.3361270067
 H          2.0237922468        0.3175360330       -2.1579502860
 H          0.2405403466        1.5655464315        0.0501475488
 H          1.5440865921        2.4002544634       -0.8083734118
 H          1.5539638244        2.3308351471        0.9568992178
 C         -4.3035171588       -1.7190409546        1.2634626977
 C         -4.0381358814       -0.9145445075        0.0033188912
 C         -4.3123942861       -1.7232716089       -1.2523031966
 C         -4.7934149211        0.4027731452        0.0038465243
 Br        -2.0987012267       -0.4713479135       -0.0043532138
 H         -5.3589494481       -1.9854925802        1.3098547317
 H         -4.0547479996       -1.1433434226        2.1536718754
 H         -3.7166171425       -2.6362291991        1.2717416985
 H         -4.0700907955       -1.1503505829       -2.1461097357
 H         -5.3681363125       -1.9900205962       -1.2902761290
 H         -3.7254029031       -2.6404616451       -1.2618192691
 H         -4.5484439203        0.9928367518        0.8856744210
 H         -5.8653472839        0.2079823473        0.0072501167
 H         -4.5535345462        0.9905857306       -0.8808804504
