  28
        -34.50286205
 C          1.6703275804       -0.7024885174        0.9970687920
 C          1.9501675671        0.2474567037       -0.1526141374
 C          1.1782620607       -0.1362771771       -1.4015146357
 C          1.6957840247        1.6903557982        0.2411015845
 Br         3.9025574000        0.0827244073       -0.5939370065
 H          0.6211534580       -0.6212750781        1.2763761539
 H          2.2782672272       -0.4520327976        1.8641164863
 H          1.8820328298       -1.7316151751        0.7126718951
 H          0.1132374269       -0.0370522143       -1.2012899829
 H          1.3889573687       -1.1645497836       -1.6898317728
 H          1.4363947711        0.5159281451       -2.2335797386
 H          0.6419868036        1.8104189128        0.4911226430
 H          1.9396554126        2.3655508317       -0.5766631003
 H          2.2921378804        1.9676788953        1.1079387660
 C         -4.2969318996       -1.3427340824        1.3688116990
 C         -3.6667000877       -0.8065653464        0.0957928157
 C         -3.0009633490       -1.9066416816       -0.7126367732
 C         -4.6588409676       -0.0144529712       -0.7368310301
 Br        -2.2270741980        0.4624577646        0.6490532085
 H         -5.0923782294       -2.0422642545        1.1143363978
 H         -4.7250507696       -0.5362572010        1.9619045589
 H         -3.5610992444       -1.8651339501        1.9779862278
 H         -2.5158484171       -1.5005993095       -1.5988153265
 H         -3.7518080840       -2.6283411745       -1.0320464399
 H         -2.2526700859       -2.4285120650       -0.1184692189
 H         -5.4664880555       -0.6697972547       -1.0611925982
 H         -4.1797510490        0.4044867683       -1.6202774012
 H         -5.0894585551        0.8016947579       -0.1589246651
