  28
        -34.50287528
 C          1.4483639777       -1.0816658580       -0.2889415429
 C          1.8799799517        0.3106703863        0.1332710239
 C          1.8482554150        1.2823319066       -1.0315273895
 C          1.0678682071        0.8217462081        1.3091143706
 Br         3.7871860698        0.1735870366        0.7500500285
 H          0.4251464008       -1.0381549738       -0.6569958238
 H          1.4946279518       -1.7755795594        0.5485601346
 H          2.0851259661       -1.4599223194       -1.0861171410
 H          0.8229831505        1.3789383215       -1.3876691598
 H          2.4693509343        0.9269061280       -1.8512744592
 H          2.2049693510        2.2646097371       -0.7283379862
 H          1.4340338473        1.7911492282        1.6410599629
 H          1.1171743749        0.1290381516        2.1475336848
 H          0.0298232505        0.9337816132        1.0012077135
 C         -2.5819409825       -1.8411634155        0.8225881801
 C         -3.4618620736       -0.8632812567        0.0631829530
 C         -4.3284196344       -1.5650813167       -0.9671001093
 C         -4.2857232999        0.0006779962        1.0013606585
 Br        -2.2430449696        0.3650490695       -0.9411161198
 H         -3.2086661452       -2.5284515029        1.3894355597
 H         -1.9281670651       -1.3182216081        1.5183938275
 H         -1.9650695486       -2.4226536499        0.1395883266
 H         -5.0119820864       -2.2478095705       -0.4636383399
 H         -3.7188527992       -2.1392901847       -1.6628722853
 H         -4.9167173664       -0.8470166245       -1.5360251564
 H         -4.9704891709       -0.6288761531        1.5683975888
 H         -4.8707474833        0.7316828531        0.4458286927
 H         -3.6462899047        0.5331305511        1.7034594312
