  28
        -34.50285892
 C          4.5792461638        0.8319725168        1.1809009985
 C          3.6322930845        0.7972103268       -0.0052478127
 C          4.0341978927        1.7919745166       -1.0796005280
 C          3.4767870619       -0.6064968358       -0.5643365361
 Br         1.8370711654        1.3595463232        0.6673077841
 H          5.5758141708        0.5306871010        0.8599607963
 H          4.2490993185        0.1506703445        1.9634061563
 H          4.6418171637        1.8345645241        1.6009010761
 H          5.0135890643        1.5247073028       -1.4748317204
 H          4.0902298999        2.8014082913       -0.6755091183
 H          3.3192017101        1.7889891807       -1.9006886587
 H          4.4357759132       -0.9537020469       -0.9468387504
 H          2.7547035025       -0.6237315103       -1.3789287111
 H          3.1433150173       -1.2988694642        0.2068737865
 C         -2.1827244792        0.4349222861        0.9534230413
 C         -1.8624217173       -0.5860626742       -0.1220457171
 C         -1.4022634689        0.0801203214       -1.4054632517
 C         -0.8638770729       -1.6189394298        0.3668617026
 Br        -3.5642810653       -1.5661158560       -0.5434414164
 H         -1.2763704906        0.9863787109        1.2022247073
 H         -2.5530886312       -0.0514804627        1.8536098130
 H         -2.9349868865        1.1408733331        0.6074281492
 H         -0.4910423955        0.6413433005       -1.2062231650
 H         -2.1572516116        0.7701584145       -1.7766466541
 H         -1.2008980423       -0.6595640869       -2.1782743862
 H         -1.2369222383       -2.1309636488        1.2515900041
 H          0.0662337559       -1.1162943549        0.6249435701
 H         -0.6623498332       -2.3617173413       -0.4029050357
