  28
        -34.50343150
 C          4.3617140060        1.5205981226        1.4546325741
 C          4.0210284410        0.9332997233        0.0965394433
 C          4.1505337455        1.9616801672       -1.0131597573
 C          4.8272033336       -0.3195589368       -0.1964313719
 Br         2.1083470699        0.3903940070        0.1620123895
 H          5.4048867389        1.8349503546        1.4641696307
 H          4.2167168381        0.7857580426        2.2450833624
 H          3.7393575597        2.3872870789        1.6721547163
 H          5.1865261933        2.2910824996       -1.0854673089
 H          3.5261309082        2.8312728015       -0.8139338441
 H          3.8560215261        1.5393338071       -1.9726590521
 H          5.8864186432       -0.0684721823       -0.2426826312
 H          4.5355282214       -0.7571347261       -1.1499815403
 H          4.6845712437       -1.0665979915        0.5829304127
 C         -1.9211069981        0.9649413550        0.4377729260
 C         -2.0606344997       -0.4579788366       -0.0691634661
 C         -1.4858529835       -0.6146853423       -1.4642045739
 C         -1.4585596270       -1.4581190795        0.8994776164
 Br        -4.0236286854       -0.8548082959       -0.1887295846
 H         -0.8622194939        1.2082091804        0.5128890179
 H         -2.3753742370        1.0742352907        1.4205401686
 H         -2.3953322509        1.6692525320       -0.2428685945
 H         -0.4170609550       -0.4090072061       -1.4282340199
 H         -1.9534991853        0.0806055272       -2.1585114315
 H         -1.6347640930       -1.6267833113       -1.8350947752
 H         -1.9116518509       -1.3672391353        1.8846377348
 H         -0.3902328409       -1.2635992156        0.9859619205
 H         -1.6012520364       -2.4772129634        0.5456777766
