  34
        -47.94150601
 C          3.9252357536       -0.7013036304        1.2535853966
 C          3.4395974488        0.0355055884        0.0002200331
 C          3.9358863057        1.4798908392        0.0038136491
 C          3.9238399389       -0.6945308760       -1.2577089348
 C          1.9162054905        0.0138811579        0.0002186665
 O          1.4087147233       -1.1915108124        0.0001229311
 O          1.2372061003        1.0252094794       -0.0000513380
 H          3.5784213894       -0.1954770085        2.1523366585
 H          5.0122758091       -0.7250817984        1.2678927095
 H          3.5512953716       -1.7218133521        1.2614237342
 H          3.5737080422        2.0084340805       -0.8743300835
 H          5.0226154739        1.4999653054        0.0035768303
 H          3.5742165989        2.0038536500        0.8849198443
 H          5.0108744820       -0.7171983327       -1.2740363856
 H          3.5749665471       -0.1845296140       -2.1532973041
 H          3.5508268696       -1.7153478273       -1.2700034291
 H          0.4012340410       -1.1839466163       -0.0002672249
 C         -3.9358457139       -1.4799162979       -0.0069037086
 C         -3.4396029256       -0.0355103230        0.0000106620
 C         -3.9265661967        0.7046875913       -1.2507911748
 C         -3.9225393698        0.6910625823        1.2604737104
 C         -1.9161940405       -0.0138609071       -0.0010347640
 O         -1.4087490453        1.1915652913       -0.0007773228
 O         -1.2371847726       -1.0251752418       -0.0011963632
 H         -3.5711261569       -2.0112841472        0.8684994289
 H         -3.5766568872       -2.0010027250       -0.8907562255
 H         -5.0225898927       -1.5000267016       -0.0036391258
 H         -3.5796790339        0.2020156971       -2.1512755173
 H         -3.5536260001        1.7255719116       -1.2556847252
 H         -5.0136347223        0.7274121939       -1.2645391862
 H         -5.0095338657        0.7148041899        1.2773735844
 H         -3.5485043210        1.7114626118        1.2757957972
 H         -3.5737853115        0.1778872215        2.1542867333
 H         -0.4012910653        1.1840164383       -0.0005281236
  34
        -47.94142387
 C          3.9883706317       -0.9636163668        1.0100835225
 C          3.4383609033        0.0120187055       -0.0344503638
 C          3.8481780823        1.4472151406        0.3206857130
 C          3.9421808741       -0.3545415779       -1.4289592155
 C          1.9159230683       -0.0393219042       -0.0064935146
 O          1.4059679709        0.1323933806        1.1854456648
 O          1.2390019911       -0.2056051518       -1.0055947848
 H          3.6938852763       -1.9835815305        0.7721312796
 H          3.6106653976       -0.7142873687        1.9980327338
 H          5.0744271071       -0.9119326617        1.0253354105
 H          3.4710093370        1.7159329623        1.3042492281
 H          3.4517543300        2.1493541140       -0.4099721324
 H          4.9324788545        1.5290374034        0.3260654167
 H          5.0268449044       -0.2923656332       -1.4609732785
 H          3.5279442233        0.3216161974       -2.1723305216
 H          3.6404071977       -1.3662596707       -1.6884482325
 H          0.3987251203        0.1065902861        1.1794507623
 C         -3.9967630650       -1.1706434043       -0.7644416704
 C         -3.4384439770        0.0123835847        0.0310988314
 C         -3.8385558353        1.3327534826       -0.6408946345
 C         -3.9430128430       -0.0233107180        1.4723315087
 C         -1.9160853012       -0.0463756766        0.0163995766
 O         -1.4063308580       -0.1915454197       -1.1790610941
 O         -1.2388135005        0.0573786886        1.0237443691
 H         -5.0824455271       -1.1156734308       -0.7912780730
 H         -3.7094334928       -2.1120223108       -0.3009317920
 H         -3.6187738382       -1.1555159956       -1.7830732995
 H         -3.4607326624        1.3684783438       -1.6597186905
 H         -3.4363282657        2.1794853124       -0.0883609227
 H         -4.9222561854        1.4188964721       -0.6653310111
 H         -3.5165245727        0.7967318343        2.0441505964
 H         -3.6551684729       -0.9550541581        1.9530662844
 H         -5.0265668137        0.0603953851        1.4894516646
 H         -0.3989613249       -0.2094611807       -1.1673361964
  34
        -47.94133692
 C          4.0156505703       -1.3803265766       -0.1339970245
 C          3.4374953179        0.0301115660        0.0022064039
 C          3.8046849531        0.6187023653        1.3716950735
 C          3.9525389317        0.9334062520       -1.1168377124
 C          1.9160043396       -0.0330889964       -0.0461835108
 O          1.4012708017       -0.9614242468        0.7172366738
 O          1.2428417163        0.7342126387       -0.7114683863
 H          3.7505409712       -1.8101416860       -1.0975496785
 H          3.6320259632       -2.0262410506        0.6509488890
 H          5.0997852852       -1.3416137922       -0.0591174781
 H          3.3856455371        1.6167224116        1.4828805174
 H          4.8860501797        0.6849918933        1.4648869441
 H          3.4221816146       -0.0126295189        2.1700520510
 H          5.0337240484        1.0250894164       -1.0533574885
 H          3.5090151704        1.9226575015       -1.0400703725
 H          3.6919684868        0.5210963858       -2.0886176298
 H          0.3940510200       -0.9689613018        0.6862942116
 C         -3.9509451088       -1.2942373702        0.6721973267
 C         -3.4375129608       -0.0108017167        0.0221794488
 C         -4.0098743505        0.1453075260       -1.3887253762
 C         -3.8128418914        1.2061812935        0.8791841737
 C         -1.9157348250       -0.0408378117       -0.0452709366
 O         -1.4010727366        0.9091727136       -0.7816545453
 O         -1.2424896615       -0.8578446737        0.5578105514
 H         -3.5124308039       -1.4215552997        1.6584717914
 H         -3.6833863010       -2.1589220974        0.0697390033
 H         -5.0328541793       -1.2554574610        0.7689974721
 H         -3.7390871537       -0.7078155366       -2.0070614671
 H         -3.6270729444        1.0480959185       -1.8566813312
 H         -5.0944505077        0.2069619857       -1.3403501147
 H         -4.8948424806        1.2799562416        0.9583135236
 H         -3.4312995576        2.1189816500        0.4281553892
 H         -3.3981200097        1.1102774864        1.8805927711
 H         -0.3938011355        0.8819849793       -0.7941724663
  34
        -47.94117101
 C          3.7990961520       -1.4662251747        0.3240983862
 C          3.4370194856       -0.0163821318       -0.0282985138
 C          4.0186662638        0.9378777318        1.0169269593
 C          3.9533074341        0.3329106561       -1.4229892061
 C          1.9155602495        0.0619024100       -0.0084182667
 O          1.4000696473        0.0404462053        1.1928282269
 O          1.2428630724        0.1050698962       -1.0234805041
 H          4.8800628189       -1.5844420085        0.3264841391
 H          3.3770541784       -2.1532417578       -0.4065759558
 H          3.4164030114       -1.7236243855        1.3088197469
 H          5.1025849165        0.8517958196        1.0298188509
 H          3.6354831023        0.6995417192        2.0052639427
 H          3.7560849043        1.9671264696        0.7822077327
 H          5.0338572813        0.2209660912       -1.4588222037
 H          3.6985706251        1.3590910551       -1.6767271156
 H          3.5055199216       -0.3201007283       -2.1674601617
 H          0.3926943866        0.0704357475        1.1787147692
 C         -3.7694306170       -1.5089259405       -0.0701829070
 C         -3.4372849168       -0.0119783829        0.0260666902
 C         -4.0425415618        0.7370355953       -1.1610670693
 C         -3.9573109680        0.5568344198        1.3458864325
 C         -1.9162566698        0.0736027664       -0.0028263845
 O         -1.4009955403        0.0570329669       -1.2034187485
 O         -1.2428319408        0.1066961342        1.0127119602
 H         -3.3311216872       -2.0503907184        0.7655238365
 H         -3.3842334684       -1.9250171214       -0.9983646733
 H         -4.8476945624       -1.6476693285       -0.0466839574
 H         -3.6709695198        0.3332722138       -2.0986206674
 H         -3.7881538136        1.7935465990       -1.1160542776
 H         -5.1255061178        0.6404599973       -1.1416330870
 H         -5.0317481325        0.4090810933        1.4177862269
 H         -3.7458622957        1.6216605908        1.4106372876
 H         -3.4753493366        0.0630729373        2.1855145021
 H         -0.3933024116        0.0804340680       -1.1895326501
  34
        -47.94095148
 C          3.7740737895       -0.0514886300        1.5061978421
 C          3.4375373484       -0.0004100387        0.0078710619
 C          4.0311645248        1.2594048552       -0.6209732229
 C          3.9660690973       -1.2537203965       -0.6900739517
 C          1.9157787981        0.0186019837       -0.0680371957
 O          1.3876589320        1.2121218943       -0.0182025288
 O          1.2532476954       -1.0034820616       -0.1225278613
 H          3.3840175473        0.8276278347        2.0144017004
 H          4.8529325334       -0.0806513679        1.6390697614
 H          3.3430900153       -0.9402576879        1.9621288716
 H          3.7683821562        1.3209396460       -1.6744941924
 H          5.1149379331        1.2357322396       -0.5348885838
 H          3.6590447904        2.1496273394       -0.1218598549
 H          3.4867939252       -2.1408504624       -0.2846279333
 H          5.0404416732       -1.3351794540       -0.5468879656
 H          3.7582677124       -1.2112299381       -1.7568176184
 H          0.3796833369        1.1878699021       -0.0361490493
 C         -4.0316810529       -1.2377584834       -0.6620257508
 C         -3.4375246918       -0.0006072964        0.0095190723
 C         -3.9656838878        1.2762661041       -0.6449771100
 C         -3.7740952047       -0.0004467245        1.5087006897
 C         -1.9157287243       -0.0160169319       -0.0670945085
 O         -1.3874374112       -1.2102111059       -0.0865750483
 O         -1.2533776448        1.0077056438       -0.0624135243
 H         -3.6624760889       -2.1447897670       -0.1918361750
 H         -3.7662361793       -1.2650843723       -1.7162823207
 H         -5.1156145550       -1.2149342818       -0.5778737180
 H         -3.7601079465        1.2693016862       -1.7129922354
 H         -3.4843424863        2.1484934590       -0.2106530877
 H         -5.0396642724        1.3543356070       -0.4970277700
 H         -4.8529730136        0.0231631117        1.6424415101
 H         -3.3437773248        0.8728094830        1.9942032472
 H         -3.3833406234       -0.8958385724        1.9871602186
 H         -0.3794401790       -1.1848681295       -0.1040945967
  34
        -47.94085627
 C          4.0352122484       -1.2969911750        0.5189266468
 C          3.4378351922        0.0112738496        0.0054912686
 C          3.7860842496        1.1634450238        0.9602917656
 C          3.9527353231        0.3262125031       -1.4003407206
 C          1.9155025850       -0.0499196343       -0.0259108364
 O          1.3875375186       -0.9410499088        0.7683346567
 O          1.2532365074        0.7097585920       -0.7129914203
 H          3.7577755279       -2.1249276055       -0.1290671393
 H          3.6802197667       -1.5147870781        1.5223211350
 H          5.1197999284       -1.2203896016        0.5396488896
 H          3.3493331197        2.0940230312        0.6047948709
 H          4.8655822287        1.2823373503        1.0142275033
 H          3.4084499068        0.9586475345        1.9598394436
 H          3.7465424994       -0.5013752268       -2.0755061194
 H          5.0260745426        0.4959158458       -1.3750500652
 H          3.4630241007        1.2155715016       -1.7883182023
 H          0.3791703700       -0.9302894559        0.7432065227
 C         -3.9545710942       -1.4277692188        0.2291200957
 C         -3.4379351453       -0.0063737973        0.0013974924
 C         -4.0292904665        0.5852553178       -1.2766968037
 C         -3.7907067445        0.8789285793        1.2066056295
 C         -1.9153855133       -0.0296701831       -0.0567941337
 O         -1.3872118142        0.8738351238       -0.8373359694
 O         -1.2530598036       -0.8053617968        0.6117449280
 H         -3.4704513009       -1.8687789986        1.0964909764
 H         -3.7428987150       -2.0526151317       -0.6356719208
 H         -5.0289303474       -1.4122422271        0.3932905764
 H         -3.7473141984       -0.0117796458       -2.1406924540
 H         -3.6737644867        1.6000583036       -1.4313055682
 H         -5.1142090055        0.6007501657       -1.2047033487
 H         -3.3616086423        0.4672899548        2.1174908546
 H         -4.8708425403        0.9289738309        1.3215481771
 H         -3.4088562321        1.8875936581        1.0640192297
 H         -0.3788825433        0.8507372180       -0.8256586238
  34
        -47.94077545
 C          3.9112411382        0.1595174759        1.4558798445
 C          3.4385738826       -0.0048193497        0.0092608015
 C          3.8519888883        1.2220756652       -0.8170456237
 C          4.0186526961       -1.2758781611       -0.6063449031
 C          1.9147501758       -0.0256111092       -0.0054049598
 O          1.3843406714       -0.8911727166       -0.8251719749
 O          1.2552439527        0.7394243233        0.6787983178
 H          3.6570176052       -0.7209574483        2.0420451555
 H          3.4340044006        1.0243590547        1.9094765886
 H          4.9892943922        0.2959782173        1.4825794184
 H          3.5092570664        1.1238871710       -1.8449714951
 H          4.9353098544        1.3156127814       -0.8195987862
 H          3.4234101079        2.1259921343       -0.3902970981
 H          5.1049382289       -1.2307551878       -0.5825525417
 H          3.6954206322       -1.3867800336       -1.6376599622
 H          3.6948354580       -2.1529025852       -0.0512632147
 H          0.3758864638       -0.8596291314       -0.8199293332
 C         -3.9095463663       -1.4713495430       -0.0826560459
 C         -3.4385048700       -0.0183117651        0.0151046412
 C         -3.8570091501        0.7517601784       -1.2462177360
 C         -4.0155349562        0.6530641945        1.2591235239
 C         -1.9146717291        0.0007799795        0.0302751559
 O         -1.3841633766        0.8718086618        0.8442568325
 O         -1.2553246323       -0.7252845027       -0.6952447783
 H         -4.9879571493       -1.5056319728       -0.2143389886
 H         -3.6516599171       -2.0170270901        0.8223860349
 H         -3.4343086675       -1.9628022689       -0.9276556051
 H         -3.4314121470        0.2851933956       -2.1317036323
 H         -3.5148838675        1.7833087981       -1.1954539697
 H         -4.9406656574        0.7492644255       -1.3358113304
 H         -3.6943300984        1.6890559577        1.3219384833
 H         -3.6872525034        0.1389131325        2.1591632138
 H         -5.1019102542        0.6248211596        1.2191922652
 H         -0.3758091411        0.8675688104        0.8098721283
