%nprocshared=4
%mem=8000mb
#T wB97XD/def2svpp opt=tight freq int(grid=ultrafine) scf=(verytight,qc)

dimer

0 1
 C          3.9252357536       -0.7013036304        1.2535853966
 C          3.4395974488        0.0355055884        0.0002200331
 C          3.9358863057        1.4798908392        0.0038136491
 C          3.9238399389       -0.6945308760       -1.2577089348
 C          1.9162054905        0.0138811579        0.0002186665
 O          1.4087147233       -1.1915108124        0.0001229311
 O          1.2372061003        1.0252094794       -0.0000513380
 H          3.5784213894       -0.1954770085        2.1523366585
 H          5.0122758091       -0.7250817984        1.2678927095
 H          3.5512953716       -1.7218133521        1.2614237342
 H          3.5737080422        2.0084340805       -0.8743300835
 H          5.0226154739        1.4999653054        0.0035768303
 H          3.5742165989        2.0038536500        0.8849198443
 H          5.0108744820       -0.7171983327       -1.2740363856
 H          3.5749665471       -0.1845296140       -2.1532973041
 H          3.5508268696       -1.7153478273       -1.2700034291
 H          0.4012340410       -1.1839466163       -0.0002672249
 C         -3.9358457139       -1.4799162979       -0.0069037086
 C         -3.4396029256       -0.0355103230        0.0000106620
 C         -3.9265661967        0.7046875913       -1.2507911748
 C         -3.9225393698        0.6910625823        1.2604737104
 C         -1.9161940405       -0.0138609071       -0.0010347640
 O         -1.4087490453        1.1915652913       -0.0007773228
 O         -1.2371847726       -1.0251752418       -0.0011963632
 H         -3.5711261569       -2.0112841472        0.8684994289
 H         -3.5766568872       -2.0010027250       -0.8907562255
 H         -5.0225898927       -1.5000267016       -0.0036391258
 H         -3.5796790339        0.2020156971       -2.1512755173
 H         -3.5536260001        1.7255719116       -1.2556847252
 H         -5.0136347223        0.7274121939       -1.2645391862
 H         -5.0095338657        0.7148041899        1.2773735844
 H         -3.5485043210        1.7114626118        1.2757957972
 H         -3.5737853115        0.1778872215        2.1542867333
 H         -0.4012910653        1.1840164383       -0.0005281236

