  15
        -17.33810643
 C         -1.3509495923       -0.8556164456       -0.1654442181
 C         -0.3763334312        0.3124742953       -0.2912795730
 N         -1.0383446592        1.5136174682        0.1944249914
 C          0.9515456669        0.0260878153        0.4387745374
 N          1.7369776817       -0.9645498396       -0.2766899401
 H         -1.5277813489       -1.0920746846        0.8827342696
 H         -0.9648746632       -1.7379927615       -0.6677876249
 H         -2.2978726536       -0.5811975630       -0.6210897606
 H         -0.1463809900        0.4744536587       -1.3498921585
 H         -0.4355224148        2.3217112975        0.0839951077
 H         -1.2493414755        1.4174801868        1.1830965726
 H          0.7290804598       -0.2588702347        1.4843245433
 H          1.5428043286        0.9485507324        0.4648103490
 H          1.2546721810       -1.8566186485       -0.2850488306
 H          2.6307242996       -1.1041253204        0.1819851668
