  15
        -17.33888846
 C         -1.4028425006       -0.7730573311        0.4331471895
 C         -0.5711379943        0.1049922292       -0.4986214836
 N         -0.6523632152        1.4833633796       -0.0379672401
 C          0.8838006215       -0.4205004897       -0.6326584375
 N          1.6609190025       -0.4710481602        0.5912516841
 H         -1.4096919513       -1.8013404067        0.0806796148
 H         -2.4229850325       -0.4018322802        0.4671505307
 H         -1.0028330119       -0.7498852633        1.4457268670
 H         -1.0192244794        0.0820443377       -1.4994917781
 H         -0.1279673553        2.0958035952       -0.6533138583
 H         -0.2615768399        1.5677290801        0.8957199933
 H          1.4245435842        0.2250948869       -1.3335985747
 H          0.8609153289       -1.4286261488       -1.0534464309
 H          1.2493246369       -1.1267677401        1.2459906106
 H          1.6851991722        0.4420023187        1.0351842916
