  15
        -17.33932136
 C         -1.7677363709       -0.7440003644       -0.0473035112
 C         -0.4642475249        0.0103725082       -0.3313295535
 N         -0.4904711102        1.3995791826        0.1096659091
 C          0.7270224558       -0.6786493546        0.3408769476
 N          1.9607972946       -0.1011771202       -0.1630594355
 H         -1.7175485278       -1.7555573316       -0.4408369972
 H         -2.6097082831       -0.2341896830       -0.5128506118
 H         -1.9466200627       -0.7985076037        1.0260041208
 H         -0.2763817572        0.0244644768       -1.4101866955
 H         -0.7198850056        1.4431312775        1.0985377918
 H         -1.2025559192        1.9167773212       -0.3937588904
 H          0.7247245635       -1.7445915283        0.0941167870
 H          0.6130439989       -0.5830653246        1.4357429474
 H          2.7491809658       -0.3924370862        0.4048370555
 H          1.8871629542        0.9100985221       -0.1096660006
