  15
        -17.34037592
 C         -1.3359647542       -0.8683536351       -0.1035730214
 C         -0.3946472985        0.3178516113       -0.2978146600
 N         -1.0520066208        1.5154693290        0.2035636933
 C          0.9805388736        0.0655907459        0.3692717405
 N          1.7696559377       -1.0146330610       -0.1902233600
 H         -1.4556897522       -1.0851516533        0.9565236051
 H         -0.9547019119       -1.7562374095       -0.6023815212
 H         -2.3099930533       -0.6276698347       -0.5198678448
 H         -0.2346696747        0.4743500167       -1.3736976798
 H         -0.4554450121        2.3265034637        0.0791009970
 H         -1.2350501307        1.4175725986        1.1973553280
 H          0.8303807040       -0.1491337957        1.4325379282
 H          1.5808250103        0.9795212538        0.2917502156
 H          1.2850292809       -1.8987224359       -0.0808042170
 H          1.9147181179       -0.8624926634       -1.1831852098
