  15
        -17.33918882
 C         -1.2887188512       -0.9199740620       -0.1273096983
 C         -0.3919709919        0.3100207641       -0.2943658579
 N         -0.9755065717        1.5435767624        0.2138914906
 C          0.9551756824        0.0888732318        0.4025783927
 N          1.6709593787       -1.0160080229       -0.2162261326
 H         -1.5533337587       -1.0507039659        0.9209700944
 H         -0.7554207762       -1.8043517226       -0.4621131974
 H         -2.2033072326       -0.8118765771       -0.7078855744
 H         -0.2038681211        0.4691392895       -1.3640093514
 H         -1.8637732157        1.7208892672       -0.2433759348
 H         -1.1592583108        1.4517044062        1.2085169183
 H          0.7791814103       -0.1757838909        1.4497284053
 H          1.5079153331        1.0418579216        0.3816537398
 H          2.5525826986       -1.1706605144        0.2605803588
 H          1.8804822449       -0.7921552692       -1.1840429760
