  15
        -17.33779778
 C         -1.3793458212       -0.7714333126        0.4623206965
 C         -0.5764180032        0.1001944943       -0.4965336157
 N         -0.6331501364        1.4784798029       -0.0364919499
 C          0.8589987555       -0.4491837850       -0.6511237571
 N          1.5549031754       -0.4450906896        0.6271474900
 H         -1.5208208129       -1.7639675581        0.0444793475
 H         -2.3496984479       -0.3176747018        0.6415795171
 H         -0.8445095766       -0.8617436526        1.4040113488
 H         -1.0449952356        0.0818263191       -1.4893365248
 H         -0.0438999080        2.0727027089       -0.6105983991
 H         -0.3048428833        1.5330287430        0.9218941098
 H          1.3818754220        0.1375527473       -1.4288917911
 H          0.8012435218       -1.4840772616       -0.9961749185
 H          1.7370777982        0.5079713705        0.9266952303
 H          2.4490393650       -0.9146229858        0.5451116663
