  15
        -17.33785607
 C         -1.7910379784       -0.6906582894        0.0108509172
 C         -0.4776966442        0.0063131680       -0.3366635268
 N         -0.5263989909        1.3798513281        0.1391805070
 C          0.7107882362       -0.6834684616        0.3404957480
 N          1.9530098396       -0.0691865725       -0.1075176235
 H         -1.7729839192       -1.7287817371       -0.3114466195
 H         -2.6214831052       -0.1875461554       -0.4782800329
 H         -1.9498237964       -0.6516453557        1.0846786729
 H         -0.3239431984       -0.0567886809       -1.4329060853
 H         -1.1351965852        1.9424018058       -0.4448622191
 H          0.4081724973        1.7728129563        0.1033100067
 H          0.6633942012       -1.7666245765        0.1404163762
 H          0.6312909452       -0.5256436613        1.4182340478
 H          2.0996422151       -0.2581417844       -1.0945554392
 H          2.7412659705       -0.4542000566        0.4004180541
