  15
        -17.34006233
 C         -1.3455135203       -0.8999629921       -0.1116485300
 C         -0.4037318327        0.2979538299       -0.2934670389
 N         -0.9513965898        1.5458894852        0.2151214081
 C          0.9539101854        0.0573501605        0.3981307215
 N          1.7993726533       -0.9547467328       -0.2018225960
 H         -1.5324219714       -1.0740555522        0.9475216311
 H         -0.9167462115       -1.8033711416       -0.5402071748
 H         -2.2979421405       -0.7120500258       -0.6055440392
 H         -0.2249506982        0.4490136407       -1.3671771331
 H         -1.1079655323        1.4723541496        1.2154255928
 H         -1.8455688425        1.7441515390       -0.2215070624
 H          0.7814488635       -0.2281063277        1.4401649460
 H          1.5045109429        1.0010605717        0.3921628047
 H          1.9977556269       -0.7164610440       -1.1680851936
 H          1.3355245395       -1.8569726786       -0.1943293967
