  15
        -17.33970256
 C         -1.4149515287       -0.7692308323        0.4529535048
 C         -0.5757466087        0.0637770798       -0.5133663060
 N         -0.5214037127        1.4365903002       -0.0239237355
 C          0.8733703818       -0.4620173398       -0.6143808081
 N          1.6442166967       -0.3725926126        0.6086258725
 H         -1.3819254647       -1.8196364387        0.1744967573
 H         -2.4513932087       -0.4383533810        0.4363691122
 H         -1.0402256529       -0.6545027766        1.4672269447
 H         -1.0266986392       -0.0112002145       -1.5218768748
 H         -1.4566459936        1.8152400346        0.0769271528
 H         -0.0145533394        2.0245144846       -0.6774597187
 H          1.4025430968        0.1220851980       -1.3749279451
 H          0.8572097598       -1.5047392128       -0.9413098588
 H          1.2465310988       -0.9842138551        1.3138158979
 H          1.5765573401        0.5771072611        0.9626018316
