  15
        -17.33835989
 C         -1.3290842117       -0.8809774390       -0.0537759369
 C         -0.3974040329        0.2979366326       -0.3245248154
 N         -1.0025413295        1.4990547238        0.2309101968
 C          0.9771803008        0.1018784615        0.3480726077
 N          1.7644481745       -1.0142018368       -0.1353394557
 H         -0.9079837863       -1.8071672845       -0.4382191495
 H         -2.2909040106       -0.7199731710       -0.5362402438
 H         -1.4913063003       -0.9772745785        1.0165004389
 H         -0.2335300861        0.3723343970       -1.4203795029
 H         -1.9019309464        1.6778203133       -0.2024019549
 H         -0.4107576074        2.3065571223        0.0700148894
 H          0.8253089499       -0.0249334316        1.4218458159
 H          1.5710691051        1.0092137288        0.1975398919
 H          1.8846583605       -0.9493114069       -1.1413587063
 H          1.2966176223       -1.8912819674        0.0647845865
