  15
        -17.33830124
 C         -1.3651786424       -0.8203734397        0.4439028490
 C         -0.5795085251        0.1055540045       -0.4901310243
 N         -0.5503034988        1.4927689870       -0.0427662512
 C          0.8610305856       -0.4010891876       -0.6603614732
 N          1.5545811480       -0.4488486260        0.6197580954
 H         -1.4520169227       -1.8126443801        0.0096182204
 H         -2.3664047756       -0.4283000543        0.6165193129
 H         -0.8427435247       -0.9030129895        1.3940289370
 H         -1.0480957355        0.1057928750       -1.4820617729
 H         -0.2184899854        1.5283351369        0.9162355810
 H         -1.4894883283        1.8764758615       -0.0469491786
 H          1.3646001076        0.2425179160       -1.3986557635
 H          0.8258974689       -1.4181872244       -1.0588569690
 H          1.7270094128        0.4965227576        0.9462079531
 H          2.4571521225       -0.8966484769        0.5058351035
