  15
        -17.33816085
 C         -1.7685909045       -0.7213657740        0.0353648581
 C         -0.4853339678        0.0098038283       -0.3440196963
 N         -0.5694881853        1.3825175062        0.1389897260
 C          0.7339039138       -0.6767947161        0.3046397399
 N          2.0291943581       -0.1458440140       -0.0744268968
 H         -1.9126055587       -0.6664348752        1.1108150820
 H         -1.7148970027       -1.7646667568       -0.2636836988
 H         -2.6267827271       -0.2638398072       -0.4528842951
 H         -0.3608443235       -0.0404290259       -1.4457524430
 H         -1.4069334865        1.8318986067       -0.2138183976
 H          0.2269551375        1.9264325197       -0.1761323870
 H          0.7230547857       -1.7367463287        0.0356675284
 H          0.6445433699       -0.5908158320        1.3890998147
 H          2.1269325668        0.8092096682        0.2522429115
 H          2.1290376837       -0.1457062320       -1.0849308724
