  15
        -17.33799802
 C         -1.3884335324       -0.8011961821        0.4381010145
 C         -0.5797090364        0.1140585106       -0.4930890730
 N         -0.5243091442        1.4960172947       -0.0476237986
 C          0.8632033086       -0.3818042626       -0.6652283435
 N          1.5556603608       -0.4101570975        0.6158851827
 H         -2.4317584467       -0.4907468107        0.4515701434
 H         -1.0023667696       -0.7457987201        1.4540269700
 H         -1.3430773774       -1.8330859997        0.0966998082
 H         -1.0564894105        0.1089797091       -1.4829300426
 H         -1.4419406757        1.8104976551        0.2495589811
 H          0.1041918230        1.5514239009        0.7479922825
 H          1.3833589907        0.3326808151       -1.3066168978
 H          0.8487534667       -1.3592148705       -1.1753028609
 H          2.5504125053       -0.5396403726        0.4726105858
 H          1.2237193158       -1.1867735024        1.1780269816
