  15
        -17.33998492
 C         -1.7712281629       -0.7154260124        0.0078279217
 C         -0.4849305869        0.0315592213       -0.3287585007
 N         -0.6202986579        1.4134808834        0.1079950336
 C          0.7378891976       -0.6951446265        0.2829087647
 N          2.0321348350       -0.1576212059       -0.0968327943
 H         -1.8857514008       -0.7995244843        1.0866673760
 H         -1.7560076606       -1.7142171135       -0.4196165669
 H         -2.6234664327       -0.1713772092       -0.3893966054
 H         -0.3609542933        0.0603389127       -1.4201604222
 H          0.2187886174        1.9439154199       -0.1031287705
 H         -0.7661624042        1.4469912105        1.1121524593
 H          0.7177830992       -1.7455209071       -0.0179975856
 H          0.6710495515       -0.6530477727        1.3751567608
 H          2.1090849841        0.8168887372        0.1783082818
 H          2.1484703578       -0.2035395687       -1.1040050933
