  15
        -17.34227460
 C         -1.7816298814       -0.7402509827        0.0254611721
 C         -0.4924667335        0.0035936699       -0.3396645163
 N         -0.4700575129        1.3910267598        0.1049697258
 C          0.7377416535       -0.7064494196        0.2577070248
 N          2.0029429993       -0.0770092136       -0.0651390820
 H         -2.6474051301       -0.2337975713       -0.3989066283
 H         -1.8991906521       -0.7803393265        1.1074641812
 H         -1.7561576873       -1.7575155294       -0.3564397754
 H         -0.3886216415        0.0240673059       -1.4329647885
 H         -0.5792335679        1.4292647030        1.1143358163
 H         -1.2391353174        1.9081882684       -0.3070216842
 H          0.7670534865       -1.7409239805       -0.0936463114
 H          0.6459574251       -0.7188575904        1.3484589307
 H          1.9560463905        0.9000980724        0.2088788914
 H          2.1468304580       -0.0936773575       -1.0704231287
