  15
        -17.34227460
 C         -1.7816298814       -0.7402509827        0.0254611721
 C         -0.4924667335        0.0035936699       -0.3396645163
 N         -0.4700575129        1.3910267598        0.1049697258
 C          0.7377416535       -0.7064494196        0.2577070248
 N          2.0029429993       -0.0770092136       -0.0651390820
 H         -2.6474051301       -0.2337975713       -0.3989066283
 H         -1.8991906521       -0.7803393265        1.1074641812
 H         -1.7561576873       -1.7575155294       -0.3564397754
 H         -0.3886216415        0.0240673059       -1.4329647885
 H         -0.5792335679        1.4292647030        1.1143358163
 H         -1.2391353174        1.9081882684       -0.3070216842
 H          0.7670534865       -1.7409239805       -0.0936463114
 H          0.6459574251       -0.7188575904        1.3484589307
 H          1.9560463905        0.9000980724        0.2088788914
 H          2.1468304580       -0.0936773575       -1.0704231287
  15
        -17.34048810
 C         -1.7952629098       -0.6777676813        0.0222805564
 C         -0.4860683972        0.0175346614       -0.3358688952
 N         -0.5390901498        1.4047557219        0.0932211490
 C          0.7165983067       -0.7421312696        0.2569195437
 N          1.9463048363       -0.0369136496       -0.0755054186
 H         -2.6287642554       -0.1103541231       -0.3812349364
 H         -1.9076856637       -0.7368675329        1.1030874467
 H         -1.8202161688       -1.6847477453       -0.3860873435
 H         -0.3754832254        0.0340615952       -1.4285169705
 H         -0.6975325692        1.4424920278        1.0961856556
 H          0.3644785959        1.8341011650       -0.0809922469
 H          0.6980872173       -1.7856639532       -0.0999304106
 H          0.6307163883       -0.7570364065        1.3484845212
 H          2.0810220467       -0.0316126510       -1.0820557195
 H          2.7461347704       -0.5013820730        0.3401799328
  15
        -17.34037592
 C         -1.3359647542       -0.8683536351       -0.1035730214
 C         -0.3946472985        0.3178516113       -0.2978146600
 N         -1.0520066208        1.5154693290        0.2035636933
 C          0.9805388736        0.0655907459        0.3692717405
 N          1.7696559377       -1.0146330610       -0.1902233600
 H         -1.4556897522       -1.0851516533        0.9565236051
 H         -0.9547019119       -1.7562374095       -0.6023815212
 H         -2.3099930533       -0.6276698347       -0.5198678448
 H         -0.2346696747        0.4743500167       -1.3736976798
 H         -0.4554450121        2.3265034637        0.0791009970
 H         -1.2350501307        1.4175725986        1.1973553280
 H          0.8303807040       -0.1491337957        1.4325379282
 H          1.5808250103        0.9795212538        0.2917502156
 H          1.2850292809       -1.8987224359       -0.0808042170
 H          1.9147181179       -0.8624926634       -1.1831852098
  15
        -17.34006233
 C         -1.3455135203       -0.8999629921       -0.1116485300
 C         -0.4037318327        0.2979538299       -0.2934670389
 N         -0.9513965898        1.5458894852        0.2151214081
 C          0.9539101854        0.0573501605        0.3981307215
 N          1.7993726533       -0.9547467328       -0.2018225960
 H         -1.5324219714       -1.0740555522        0.9475216311
 H         -0.9167462115       -1.8033711416       -0.5402071748
 H         -2.2979421405       -0.7120500258       -0.6055440392
 H         -0.2249506982        0.4490136407       -1.3671771331
 H         -1.1079655323        1.4723541496        1.2154255928
 H         -1.8455688425        1.7441515390       -0.2215070624
 H          0.7814488635       -0.2281063277        1.4401649460
 H          1.5045109429        1.0010605717        0.3921628047
 H          1.9977556269       -0.7164610440       -1.1680851936
 H          1.3355245395       -1.8569726786       -0.1943293967
  15
        -17.33998492
 C         -1.7712281629       -0.7154260124        0.0078279217
 C         -0.4849305869        0.0315592213       -0.3287585007
 N         -0.6202986579        1.4134808834        0.1079950336
 C          0.7378891976       -0.6951446265        0.2829087647
 N          2.0321348350       -0.1576212059       -0.0968327943
 H         -1.8857514008       -0.7995244843        1.0866673760
 H         -1.7560076606       -1.7142171135       -0.4196165669
 H         -2.6234664327       -0.1713772092       -0.3893966054
 H         -0.3609542933        0.0603389127       -1.4201604222
 H          0.2187886174        1.9439154199       -0.1031287705
 H         -0.7661624042        1.4469912105        1.1121524593
 H          0.7177830992       -1.7455209071       -0.0179975856
 H          0.6710495515       -0.6530477727        1.3751567608
 H          2.1090849841        0.8168887372        0.1783082818
 H          2.1484703578       -0.2035395687       -1.1040050933
  15
        -17.33970256
 C         -1.4149515287       -0.7692308323        0.4529535048
 C         -0.5757466087        0.0637770798       -0.5133663060
 N         -0.5214037127        1.4365903002       -0.0239237355
 C          0.8733703818       -0.4620173398       -0.6143808081
 N          1.6442166967       -0.3725926126        0.6086258725
 H         -1.3819254647       -1.8196364387        0.1744967573
 H         -2.4513932087       -0.4383533810        0.4363691122
 H         -1.0402256529       -0.6545027766        1.4672269447
 H         -1.0266986392       -0.0112002145       -1.5218768748
 H         -1.4566459936        1.8152400346        0.0769271528
 H         -0.0145533394        2.0245144846       -0.6774597187
 H          1.4025430968        0.1220851980       -1.3749279451
 H          0.8572097598       -1.5047392128       -0.9413098588
 H          1.2465310988       -0.9842138551        1.3138158979
 H          1.5765573401        0.5771072611        0.9626018316
  15
        -17.33932136
 C         -1.7677363709       -0.7440003644       -0.0473035112
 C         -0.4642475249        0.0103725082       -0.3313295535
 N         -0.4904711102        1.3995791826        0.1096659091
 C          0.7270224558       -0.6786493546        0.3408769476
 N          1.9607972946       -0.1011771202       -0.1630594355
 H         -1.7175485278       -1.7555573316       -0.4408369972
 H         -2.6097082831       -0.2341896830       -0.5128506118
 H         -1.9466200627       -0.7985076037        1.0260041208
 H         -0.2763817572        0.0244644768       -1.4101866955
 H         -0.7198850056        1.4431312775        1.0985377918
 H         -1.2025559192        1.9167773212       -0.3937588904
 H          0.7247245635       -1.7445915283        0.0941167870
 H          0.6130439989       -0.5830653246        1.4357429474
 H          2.7491809658       -0.3924370862        0.4048370555
 H          1.8871629542        0.9100985221       -0.1096660006
  15
        -17.33918882
 C         -1.2887188512       -0.9199740620       -0.1273096983
 C         -0.3919709919        0.3100207641       -0.2943658579
 N         -0.9755065717        1.5435767624        0.2138914906
 C          0.9551756824        0.0888732318        0.4025783927
 N          1.6709593787       -1.0160080229       -0.2162261326
 H         -1.5533337587       -1.0507039659        0.9209700944
 H         -0.7554207762       -1.8043517226       -0.4621131974
 H         -2.2033072326       -0.8118765771       -0.7078855744
 H         -0.2038681211        0.4691392895       -1.3640093514
 H         -1.8637732157        1.7208892672       -0.2433759348
 H         -1.1592583108        1.4517044062        1.2085169183
 H          0.7791814103       -0.1757838909        1.4497284053
 H          1.5079153331        1.0418579216        0.3816537398
 H          2.5525826986       -1.1706605144        0.2605803588
 H          1.8804822449       -0.7921552692       -1.1840429760
  15
        -17.33911999
 C         -1.4374896524       -0.7365911557        0.4546612320
 C         -0.5742688207        0.0900335248       -0.4969980784
 N         -0.5718918612        1.4702200526       -0.0432542256
 C          0.8491689131       -0.4948688584       -0.6337192896
 N          1.5854928255       -0.3350734800        0.6121174823
 H         -1.0413506020       -0.6905530413        1.4660918118
 H         -1.4782996787       -1.7744240285        0.1327176138
 H         -2.4445979653       -0.3305715810        0.4694945559
 H         -1.0367679106        0.0705869415       -1.4921169102
 H         -0.0670980291        2.0517133028       -0.7042986728
 H         -0.0673485593        1.5169899045        0.8373775542
 H          1.3866585294        0.0688263113       -1.4034509243
 H          0.7774006090       -1.5421001002       -0.9727895780
 H          1.1874080947       -0.9305128328        1.3308560681
 H          2.5524830383       -0.6127735445        0.4871386938
  15
        -17.33894142
 C         -1.2914555832       -0.8863182513       -0.1253583585
 C         -0.3841668343        0.3262390125       -0.2938671379
 N         -1.0672714928        1.5095674819        0.2028203683
 C          0.9753212255        0.0791905046        0.3894533040
 N          1.6495139021       -1.0566061316       -0.2151488998
 H         -1.5270442525       -1.0323256764        0.9265615767
 H         -0.7862613125       -1.7726631237       -0.4956906094
 H         -2.2176022994       -0.7345186493       -0.6715679195
 H         -0.2040858194        0.4915996732       -1.3642049106
 H         -0.4771462069        2.3297652229        0.1092693579
 H         -1.2848389488        1.3953434605        1.1877967975
 H          0.8093528011       -0.1578270132        1.4457613973
 H          1.5683313892        1.0127625936        0.3425840054
 H          2.5390722400       -1.2258059671        0.2413266306
 H          1.8342385437       -0.8704134256       -1.1957168245
  15
        -17.33888846
 C         -1.4028425006       -0.7730573311        0.4331471895
 C         -0.5711379943        0.1049922292       -0.4986214836
 N         -0.6523632152        1.4833633796       -0.0379672401
 C          0.8838006215       -0.4205004897       -0.6326584375
 N          1.6609190025       -0.4710481602        0.5912516841
 H         -1.4096919513       -1.8013404067        0.0806796148
 H         -2.4229850325       -0.4018322802        0.4671505307
 H         -1.0028330119       -0.7498852633        1.4457268670
 H         -1.0192244794        0.0820443377       -1.4994917781
 H         -0.1279673553        2.0958035952       -0.6533138583
 H         -0.2615768399        1.5677290801        0.8957199933
 H          1.4245435842        0.2250948869       -1.3335985747
 H          0.8609153289       -1.4286261488       -1.0534464309
 H          1.2493246369       -1.1267677401        1.2459906106
 H          1.6851991722        0.4420023187        1.0351842916
  15
        -17.33867857
 C         -1.4069333516       -0.8159373970        0.4124794314
 C         -0.5754506221        0.1049757162       -0.4916934681
 N         -0.5598076460        1.4916038426       -0.0466185189
 C          0.8800399787       -0.3973595858       -0.6339479797
 N          1.6723577131       -0.4479343713        0.5778554227
 H         -2.4443481603       -0.4859058197        0.4358791247
 H         -1.0263493305       -0.8028475498        1.4338698951
 H         -1.3787778252       -1.8385670779        0.0442987115
 H         -1.0161448369        0.1017184532       -1.4956066403
 H         -0.2233405417        1.5487175506        0.9101876782
 H         -1.4968338397        1.8785282259       -0.0597399176
 H          1.3976387527        0.2633738218       -1.3325631511
 H          0.8602436589       -1.4043727714       -1.0596813152
 H          1.2286714897       -1.0393992463        1.2721997882
 H          1.7747031794        0.4826749909        0.9672517081
  15
        -17.33835989
 C         -1.3290842117       -0.8809774390       -0.0537759369
 C         -0.3974040329        0.2979366326       -0.3245248154
 N         -1.0025413295        1.4990547238        0.2309101968
 C          0.9771803008        0.1018784615        0.3480726077
 N          1.7644481745       -1.0142018368       -0.1353394557
 H         -0.9079837863       -1.8071672845       -0.4382191495
 H         -2.2909040106       -0.7199731710       -0.5362402438
 H         -1.4913063003       -0.9772745785        1.0165004389
 H         -0.2335300861        0.3723343970       -1.4203795029
 H         -1.9019309464        1.6778203133       -0.2024019549
 H         -0.4107576074        2.3065571223        0.0700148894
 H          0.8253089499       -0.0249334316        1.4218458159
 H          1.5710691051        1.0092137288        0.1975398919
 H          1.8846583605       -0.9493114069       -1.1413587063
 H          1.2966176223       -1.8912819674        0.0647845865
  15
        -17.33830124
 C         -1.3651786424       -0.8203734397        0.4439028490
 C         -0.5795085251        0.1055540045       -0.4901310243
 N         -0.5503034988        1.4927689870       -0.0427662512
 C          0.8610305856       -0.4010891876       -0.6603614732
 N          1.5545811480       -0.4488486260        0.6197580954
 H         -1.4520169227       -1.8126443801        0.0096182204
 H         -2.3664047756       -0.4283000543        0.6165193129
 H         -0.8427435247       -0.9030129895        1.3940289370
 H         -1.0480957355        0.1057928750       -1.4820617729
 H         -0.2184899854        1.5283351369        0.9162355810
 H         -1.4894883283        1.8764758615       -0.0469491786
 H          1.3646001076        0.2425179160       -1.3986557635
 H          0.8258974689       -1.4181872244       -1.0588569690
 H          1.7270094128        0.4965227576        0.9462079531
 H          2.4571521225       -0.8966484769        0.5058351035
  15
        -17.33816085
 C         -1.7685909045       -0.7213657740        0.0353648581
 C         -0.4853339678        0.0098038283       -0.3440196963
 N         -0.5694881853        1.3825175062        0.1389897260
 C          0.7339039138       -0.6767947161        0.3046397399
 N          2.0291943581       -0.1458440140       -0.0744268968
 H         -1.9126055587       -0.6664348752        1.1108150820
 H         -1.7148970027       -1.7646667568       -0.2636836988
 H         -2.6267827271       -0.2638398072       -0.4528842951
 H         -0.3608443235       -0.0404290259       -1.4457524430
 H         -1.4069334865        1.8318986067       -0.2138183976
 H          0.2269551375        1.9264325197       -0.1761323870
 H          0.7230547857       -1.7367463287        0.0356675284
 H          0.6445433699       -0.5908158320        1.3890998147
 H          2.1269325668        0.8092096682        0.2522429115
 H          2.1290376837       -0.1457062320       -1.0849308724
  15
        -17.33810643
 C         -1.3509495923       -0.8556164456       -0.1654442181
 C         -0.3763334312        0.3124742953       -0.2912795730
 N         -1.0383446592        1.5136174682        0.1944249914
 C          0.9515456669        0.0260878153        0.4387745374
 N          1.7369776817       -0.9645498396       -0.2766899401
 H         -1.5277813489       -1.0920746846        0.8827342696
 H         -0.9648746632       -1.7379927615       -0.6677876249
 H         -2.2978726536       -0.5811975630       -0.6210897606
 H         -0.1463809900        0.4744536587       -1.3498921585
 H         -0.4355224148        2.3217112975        0.0839951077
 H         -1.2493414755        1.4174801868        1.1830965726
 H          0.7290804598       -0.2588702347        1.4843245433
 H          1.5428043286        0.9485507324        0.4648103490
 H          1.2546721810       -1.8566186485       -0.2850488306
 H          2.6307242996       -1.1041253204        0.1819851668
  15
        -17.33799802
 C         -1.3884335324       -0.8011961821        0.4381010145
 C         -0.5797090364        0.1140585106       -0.4930890730
 N         -0.5243091442        1.4960172947       -0.0476237986
 C          0.8632033086       -0.3818042626       -0.6652283435
 N          1.5556603608       -0.4101570975        0.6158851827
 H         -2.4317584467       -0.4907468107        0.4515701434
 H         -1.0023667696       -0.7457987201        1.4540269700
 H         -1.3430773774       -1.8330859997        0.0966998082
 H         -1.0564894105        0.1089797091       -1.4829300426
 H         -1.4419406757        1.8104976551        0.2495589811
 H          0.1041918230        1.5514239009        0.7479922825
 H          1.3833589907        0.3326808151       -1.3066168978
 H          0.8487534667       -1.3592148705       -1.1753028609
 H          2.5504125053       -0.5396403726        0.4726105858
 H          1.2237193158       -1.1867735024        1.1780269816
  15
        -17.33794729
 C         -1.7723162726       -0.7039745758       -0.0281220196
 C         -0.4714808421        0.0325759114       -0.3367079909
 N         -0.6092877323        1.4145074963        0.0940682493
 C          0.7218971018       -0.7062898342        0.3016313718
 N          1.9806704462       -0.1277260106       -0.1430748126
 H         -1.7557563082       -1.7048435592       -0.4501804159
 H         -2.6080343621       -0.1533833450       -0.4494971399
 H         -1.9168621066       -0.7804614430        1.0479036438
 H         -0.3112338515        0.0551551134       -1.4196200428
 H         -0.6824915547        1.4611965998        1.1059425918
 H          0.1956854386        1.9588550828       -0.1933106363
 H          0.7059669039       -1.7485795804       -0.0255760350
 H          0.6008471241       -0.6936363021        1.4007985169
 H          2.7631182264       -0.6738294917        0.1988730468
 H          2.0870369015        0.8149513923        0.2188356142
  15
        -17.33785607
 C         -1.7910379784       -0.6906582894        0.0108509172
 C         -0.4776966442        0.0063131680       -0.3366635268
 N         -0.5263989909        1.3798513281        0.1391805070
 C          0.7107882362       -0.6834684616        0.3404957480
 N          1.9530098396       -0.0691865725       -0.1075176235
 H         -1.7729839192       -1.7287817371       -0.3114466195
 H         -2.6214831052       -0.1875461554       -0.4782800329
 H         -1.9498237964       -0.6516453557        1.0846786729
 H         -0.3239431984       -0.0567886809       -1.4329060853
 H         -1.1351965852        1.9424018058       -0.4448622191
 H          0.4081724973        1.7728129563        0.1033100067
 H          0.6633942012       -1.7666245765        0.1404163762
 H          0.6312909452       -0.5256436613        1.4182340478
 H          2.0996422151       -0.2581417844       -1.0945554392
 H          2.7412659705       -0.4542000566        0.4004180541
  15
        -17.33779778
 C         -1.3793458212       -0.7714333126        0.4623206965
 C         -0.5764180032        0.1001944943       -0.4965336157
 N         -0.6331501364        1.4784798029       -0.0364919499
 C          0.8589987555       -0.4491837850       -0.6511237571
 N          1.5549031754       -0.4450906896        0.6271474900
 H         -1.5208208129       -1.7639675581        0.0444793475
 H         -2.3496984479       -0.3176747018        0.6415795171
 H         -0.8445095766       -0.8617436526        1.4040113488
 H         -1.0449952356        0.0818263191       -1.4893365248
 H         -0.0438999080        2.0727027089       -0.6105983991
 H         -0.3048428833        1.5330287430        0.9218941098
 H          1.3818754220        0.1375527473       -1.4288917911
 H          0.8012435218       -1.4840772616       -0.9961749185
 H          1.7370777982        0.5079713705        0.9266952303
 H          2.4490393650       -0.9146229858        0.5451116663
  15
        -17.33762380
 C         -1.3394929704       -0.8932499802       -0.1569426800
 C         -0.3857260973        0.2999929327       -0.2978815289
 N         -0.9483857369        1.5453293027        0.2046780038
 C          0.9416226856        0.0547326720        0.4311629953
 N          1.7422746272       -0.9415664354       -0.2603990044
 H         -0.9181467356       -1.7812420134       -0.6201558302
 H         -2.2879487092       -0.6752766137       -0.6457073294
 H         -1.5334842636       -1.1027171274        0.8950327998
 H         -0.1592179071        0.4524730549       -1.3584801903
 H         -1.1733915074        1.4504279157        1.1904740319
 H         -1.8091555443        1.7641484815       -0.2853334843
 H          0.7278401020       -0.2069346433        1.4831112120
 H          1.4989764450        0.9942090140        0.4263722560
 H          1.3029113214       -1.8538693886       -0.1996826061
 H          2.6570167635       -1.0141416672        0.1706864103
  15
        -17.33733433
 C         -1.3527542952       -0.7908191830        0.4786707997
 C         -0.5745755609        0.0710682724       -0.5088111285
 N         -0.5316921361        1.4451023386       -0.0188783111
 C          0.8697677304       -0.4278371883       -0.6485418786
 N          1.5196109676       -0.4256232097        0.6498901330
 H         -2.3687918507       -0.4183464776        0.5916753546
 H         -0.8540017417       -0.7693082158        1.4420000289
 H         -1.3930694715       -1.8171470363        0.1255980261
 H         -1.0542488475       -0.0026031012       -1.5043881045
 H         -1.4691092312        1.7821691639        0.1687163725
 H         -0.1128666895        2.0561710234       -0.7125672112
 H          1.3838197758        0.2071141923       -1.3933257738
 H          0.8661814496       -1.4531763094       -1.0308048846
 H          1.3558089574        0.4771259812        1.0854138194
 H          2.5200706792       -0.5539703092        0.5463238119
  15
        -17.33704599
 C         -1.2879559975       -0.8992343041       -0.0780506680
 C         -0.3851446116        0.3052253631       -0.3183720180
 N         -1.0197411498        1.4947754651        0.2323388257
 C          0.9663792434        0.1078608146        0.3784772114
 N          1.6525261106       -1.0519668120       -0.1666280976
 H         -2.1892523509       -0.8317326385       -0.6833585351
 H         -1.5712642539       -0.9313722256        0.9701159092
 H         -0.7511694808       -1.8080518142       -0.3312252339
 H         -0.1950608784        0.3926277350       -1.4072074270
 H         -1.9325862070        1.6298769776       -0.1881005600
 H         -0.4629130639        2.3211535449        0.0420473159
 H          0.7867712762       -0.0707166947        1.4407096481
 H          1.5496543892        1.0414811683        0.2871086181
 H          2.5299499694       -1.2005050122        0.3190769431
 H          1.8640095158       -0.9030773570       -1.1484893881
  15
        -17.33684312
 C         -1.7679309702       -0.7132280242       -0.0115901124
 C         -0.4683242787        0.0120863089       -0.3474646245
 N         -0.5650046436        1.3878763028        0.1301648646
 C          0.7183326019       -0.6753177450        0.3410287658
 N          1.9811228887       -0.1276369702       -0.1356360325
 H         -1.7130093180       -1.7551413842       -0.3149394018
 H         -2.6060482292       -0.2464931953       -0.5247149820
 H         -1.9480673064       -0.6631230455        1.0591318640
 H         -0.2950826789       -0.0419886313       -1.4372002246
 H         -1.3963728469        1.8277997297       -0.2500852469
 H          0.2338397960        1.9238756299       -0.1912143198
 H          0.7040070088       -1.7372186272        0.0827961079
 H          0.5856296749       -0.5793476686        1.4299704122
 H          2.7549811123       -0.6642738681        0.2412055504
 H          2.0893156523        0.8255432833        0.1958955094
  15
        -17.33643879
 C         -1.3489635211       -0.8702159388       -0.1207166255
 C         -0.3776142713        0.2912561202       -0.3150781559
 N         -0.9935327172        1.4977862047        0.2241264145
 C          0.9438816728        0.0582852394        0.4294533204
 N          1.7392311250       -0.9648022085       -0.2307840589
 H         -0.9248256648       -1.7950443607       -0.5016803505
 H         -2.2767275090       -0.6763825111       -0.6548009435
 H         -1.5776627945       -0.9841725936        0.9359976351
 H         -0.1376092832        0.3750794126       -1.3907685074
 H         -1.8750719955        1.6788377520       -0.2438919297
 H         -0.3924981998        2.3008824256        0.0741242449
 H          0.7147538905       -0.1648032441        1.4836926893
 H          1.5242862414        0.9856610074        0.4049410301
 H          1.2730755755       -1.8639143675       -0.1718843466
 H          2.6366504153       -1.0581720638        0.2323614756
  15
        -17.33562604
 C         -1.7862491800       -0.7121969744        0.0482267571
 C         -0.4918321249        0.0162718253       -0.3445563331
 N         -0.4486936316        1.4004425123        0.0881835468
 C          0.7193378892       -0.7363562716        0.2173974770
 N          1.9505190475       -0.0113791375       -0.0349794857
 H         -1.8949531562       -0.7298041582        1.1315757157
 H         -1.7773213676       -1.7369438245       -0.3148055144
 H         -2.6491246405       -0.2036531011       -0.3782954934
 H         -0.4175153650        0.0300428158       -1.4412431676
 H         -0.3469520994        1.4511588216        1.0953115827
 H         -1.3039653476        1.8790833456       -0.1720294960
 H          0.7136087235       -1.7557360734       -0.2088249708
 H          0.6133568648       -0.8302097215        1.3041789315
 H          2.0138151123        0.2449261447       -1.0134690659
 H          2.7536341836       -0.5842663987        0.1988517195
  15
        -17.33391404
 C         -1.6559148967       -0.7882070798       -0.1443296572
 C         -0.4293239401        0.1281403936       -0.2687675166
 N         -0.6915077285        1.4888434995        0.1719965945
 C          0.7730606141       -0.4369407018        0.5129889758
 N          1.9810458227       -0.3774118795       -0.2925247678
 H         -1.9466195177       -0.8885455889        0.9008006989
 H         -1.4421935075       -1.7773910058       -0.5418481787
 H         -2.4963480849       -0.3717668726       -0.6977448065
 H         -0.1405553953        0.1958061686       -1.3235468082
 H         -1.0315822743        1.4877600288        1.1285211180
 H         -1.4027769598        1.9187688190       -0.4090855621
 H          0.5387464003       -1.4592274637        0.8574894520
 H          0.9397518692        0.1860139022        1.3947782483
 H          1.9106498209       -1.0111938649       -1.0818258147
 H          2.7873671856       -0.6528141969        0.2570350557
  15
        -17.33322432
 C         -1.4975520875       -0.7185331076        0.4458690222
 C         -0.5707296254        0.0484502347       -0.5004739207
 N         -0.4678831041        1.4201919495       -0.0308653864
 C          0.8290544179       -0.5833387799       -0.5643562006
 N          1.6386565120       -0.2078515114        0.5806921957
 H         -1.5963096430       -1.7544822985        0.1306036156
 H         -2.4831644423       -0.2597282133        0.4497194353
 H         -1.1084412137       -0.6856696224        1.4596657975
 H         -0.9972644916       -0.0231158065       -1.5210305373
 H         -1.3028365773        1.9448744325       -0.2629553987
 H          0.3347783849        1.8798389755       -0.4415482199
 H          1.3488589963       -0.2164782982       -1.4575804149
 H          0.7044611287       -1.6742621753       -0.6805112890
 H          2.4782749193       -0.7744764168        0.6198326989
 H          1.1191993918       -0.3474454550        1.4389790240
