  15
        -22.03780028
 N         -0.0355721837       -1.1812202044       -0.8777563611
 C          0.0555863273       -0.4843079825        0.4012456160
 C          0.9555511072        0.7388428540        0.2193599666
 O          2.2555277514        0.2870547379       -0.1030883528
 C         -1.3683391387       -0.0569592336        0.7868928486
 O         -1.9740454760        0.6564175153       -0.2556219299
 H         -0.4025904750       -2.1179490440       -0.7461815418
 H          0.8936321472       -1.2622223078       -1.2760550128
 H          0.4823008202       -1.1058165938        1.2056304184
 H          0.9668070271        1.3212481569        1.1499195500
 H          0.5481344065        1.3625267908       -0.5859029083
 H          2.8226230727        1.0504386017       -0.2474746293
 H         -1.3574631912        0.5935400204        1.6640795776
 H         -1.9568796882       -0.9568654662        1.0256150663
 H         -1.7137473145        0.1992610490       -1.0703174291
