  15
        -22.03831074
 N          0.0322654645       -1.5426554429       -0.7477419476
 C          0.0350473328       -0.8007120735        0.5002098592
 C          1.2366490097        0.1634865447        0.6359048787
 O          1.4068007492        0.9733110107       -0.4959736322
 C         -1.2979574527       -0.0502468626        0.6263532153
 O         -1.3550795004        1.0034885054       -0.3192597937
 H          0.9059568012       -2.0486419511       -0.8495693506
 H         -0.0214599253       -0.8816331202       -1.5178559445
 H          0.0801609155       -1.5239106241        1.3238360315
 H          2.1602708253       -0.4147869954        0.7350553103
 H          1.1110995317        0.7735959644        1.5436432614
 H          0.5497245357        1.3841588346       -0.6808886715
 H         -1.3928157460        0.3527739566        1.6444845560
 H         -2.1081169727       -0.7669494236        0.4497163024
 H         -2.2412833403        1.3763475271       -0.3191822596
