  15
        -22.04006957
 N         -0.0616650516       -1.0450704607       -0.9518772470
 C          0.0039839896       -0.1408300345        0.1886091799
 C          1.2507070806        0.7617490613        0.1763853807
 O          2.4416031516        0.0104545922        0.1773113026
 C         -1.2882872819        0.6830804629        0.2047896090
 O         -2.4141301098       -0.1487902616        0.2524248095
 H          0.7742831870       -1.6197801102       -0.9825602312
 H         -0.0828084303       -0.5054962645       -1.8134182311
 H          0.0270556304       -0.7693880395        1.0894241101
 H          1.2199513754        1.4547231069        1.0280833216
 H          1.2762691861        1.3474780777       -0.7466707822
 H          2.4926363172       -0.4908169805        0.9990877553
 H         -1.3185446233        1.3218300354       -0.6929816458
 H         -1.3280060618        1.3251986094        1.0874610547
 H         -2.2396283334       -0.8841291665       -0.3519342080
