  15
        -22.03843153
 N          0.0339134949       -2.0914489624       -0.1006530706
 C          0.0047254353       -0.6960809314        0.2998425738
 C          1.2605369778       -0.0107695180       -0.2635417067
 O          1.3555566771        1.3516418681        0.0859920452
 C         -1.2689467793       -0.0441497560       -0.2653339680
 O         -1.4337813547        1.2828113947        0.1538274854
 H          0.8375448295       -2.5641802514        0.2981277540
 H         -0.8007872757       -2.5702821614        0.2177261375
 H         -0.0037497997       -0.5541424076        1.4001666186
 H          1.2296533835       -0.0424088921       -1.3544026109
 H          2.1532822428       -0.5579434160        0.0707889826
 H          1.4153356280        1.4236134369        1.0460724973
 H         -2.1484478793       -0.5874637749        0.0923518941
 H         -1.2399797896       -0.1177276149       -1.3614876281
 H         -0.6285000355        1.7654850922       -0.0881160021
