  15
        -22.03828939
 N         -0.0624046737       -1.0120412292       -0.9682588199
 C          0.0081024716       -0.1439142540        0.1973841951
 C          1.2447702912        0.7667651463        0.2087779787
 O          2.3907958552       -0.0569397813        0.1790126738
 C         -1.2880625277        0.6740722816        0.2427993354
 O         -2.4075023845       -0.1669665177        0.2356021267
 H          0.7368666205       -1.6358798788       -0.9711250394
 H         -0.0148137879       -0.4534738590       -1.8167010990
 H          0.0514062991       -0.7956684598        1.0766170562
 H          1.2316306821        1.3920410610        1.1110133589
 H          1.2233823757        1.4272675822       -0.6723839535
 H          3.1779248890        0.4902249437        0.2590782317
 H         -1.3150473468        1.3542468385       -0.6249974494
 H         -1.3400513432        1.2737465404        1.1542603969
 H         -2.1995152210       -0.8892146759       -0.3751264333
