  15
        -22.03831463
 N          0.2761085441       -1.7438046918       -0.3565097349
 C         -0.0451878242       -0.4322875243        0.1788815888
 C          0.9009312465        0.6787799812       -0.3176127790
 O          2.2406131046        0.4345284051        0.0451029449
 C         -1.5013165544       -0.0866878917       -0.1604733532
 O         -1.9660486805        1.0549826038        0.5144814697
 H          1.2689743070       -1.9185414416       -0.2286673108
 H          0.0989466414       -1.7591643466       -1.3563706879
 H          0.0535313430       -0.5059958269        1.2736557896
 H          0.5558008666        1.6507147475        0.0578472919
 H          0.8944879259        0.7054710678       -1.4105201126
 H          2.3116128997        0.4533712288        1.0059518216
 H         -2.1266823194       -0.9619751057        0.0586980498
 H         -1.5883069241        0.1451963435       -1.2249102305
 H         -1.9706533631        0.8755687424        1.4614379138
