  15
        -22.03981629
 N          0.3781608380       -1.7024033878       -0.3487347907
 C         -0.0472415366       -0.4269633866        0.2098533976
 C          0.8871671678        0.6584220166       -0.3392508411
 O          2.2174136823        0.4226661007        0.0339783014
 C         -1.5211267982       -0.0869920534       -0.0820967848
 O         -1.9341416061        1.1258882828        0.4907196098
 H          0.2264641285       -1.7092084052       -1.3530460272
 H         -0.1541957490       -2.4676638727        0.0497657145
 H          0.0990649178       -0.4879443676        1.2969179971
 H          0.6098196938        1.6359847125        0.0594243215
 H          0.7914308104        0.6890181361       -1.4361999508
 H          2.3893781504       -0.5151258397       -0.1243400680
 H         -2.1579361124       -0.9177965073        0.2645003926
 H         -1.6675126783        0.0320154001       -1.1597350075
 H         -1.7706648124        1.0955421296        1.4403443459
