  15
        -22.03833110
 N         -0.2074700876       -1.8240723736       -0.5124243608
 C          0.1048082591       -0.7002034686        0.3521376522
 C          1.2514990659        0.0909012870       -0.3018736464
 O          1.6189496690        1.2402096977        0.4222552700
 C         -1.1100885912        0.2164037476        0.6291397306
 O         -1.6344147908        0.7851810964       -0.5451705261
 H         -0.6385245055       -1.4744992147       -1.3637892974
 H         -0.8858986495       -2.4306630630       -0.0638522969
 H          0.4506745507       -1.0988511073        1.3148576472
 H          0.9403471328        0.4441385767       -1.2885732099
 H          2.1037956348       -0.5849589432       -0.4426737946
 H          1.9751932087        0.9694348193        1.2752032467
 H         -0.8266788716        0.9944133688        1.3496168078
 H         -1.9198380031       -0.3796762874        1.0600578800
 H         -1.0045365825        1.4407096071       -0.8649303592
