  15
        -22.03855664
 N          0.3235466989       -1.7475872490       -0.5122348429
 C         -0.0872624705       -0.6857538817        0.3999012800
 C          1.1245015629        0.2395582942        0.5936737050
 O          1.5299802751        0.8250118698       -0.6147882354
 C         -1.2667074924        0.0653885085       -0.2461493003
 O         -1.6677790016        1.1989062078        0.4743273671
 H         -0.4701051736       -2.3218861261       -0.7729617515
 H          1.0081208038       -2.3498724266       -0.0664566764
 H         -0.4015723610       -1.0507014657        1.3928598044
 H          1.9473180865       -0.3455603333        1.0337708227
 H          0.8843935637        1.0533205404        1.2818982230
 H          1.5622087085        0.1122455762       -1.2670920255
 H         -2.1383936848       -0.5939747751       -0.2785591621
 H         -0.9896177529        0.3268493712       -1.2756762373
 H         -0.9766945362        1.8660071177        0.3934110597
