  15
        -22.03871762
 N          0.0610599159       -1.1902063947       -0.8719334763
 C         -0.0104830444       -0.4871717394        0.4027545332
 C          1.4051580635        0.0155669272        0.7262796338
 O          1.9294484675        0.7515464917       -0.3420902304
 C         -0.9846258799        0.6881900774        0.2474442017
 O         -2.2922193695        0.2559405688       -0.0450537244
 H         -0.8635900265       -1.2458268333       -1.2855576211
 H          0.4218522147       -2.1302914783       -0.7564682652
 H         -0.3596529649       -1.1279187969        1.2349490460
 H          2.0484104685       -0.8516694731        0.9458014546
 H          1.3952411038        0.6704014600        1.6005523951
 H          1.6592501578        0.2793731071       -1.1448356769
 H         -0.6752331868        1.2999270971       -0.6015576324
 H         -0.9659275859        1.3045675876        1.1550923833
 H         -2.6367678473       -0.2322269095        0.7114344988
