  15
        -22.03850953
 N         -0.0546566760       -1.2331432166       -0.8648799940
 C         -0.0147778466       -0.4986603575        0.3899281708
 C          1.3913145960        0.0069884081        0.7575613124
 O          1.8776816748        0.7882707609       -0.3138984451
 C         -1.0000133595        0.6711620792        0.2576527270
 O         -2.2846077147        0.2122374840       -0.0651673285
 H          0.4989418532       -2.0805525321       -0.8008189129
 H          0.3576999957       -0.6521401720       -1.5898694000
 H         -0.3635861372       -1.1684081050        1.1846596068
 H          2.0553047012       -0.8540036331        0.9315484843
 H          1.3367123371        0.5964377998        1.6818961842
 H          2.7217851667        1.1755870485       -0.0645869445
 H         -0.6262217533        1.3583081778       -0.5153599055
 H         -1.0830161425        1.2133776364        1.2021614059
 H         -2.1654941059       -0.4727420180       -0.7380574825
