%nprocshared=4
%mem=8000mb
%chk=13.chk
%nprocshared=4
%mem=8000mb
#T wB97XD/def2svpp opt=tight freq int(grid=ultrafine) scf=(verytight,qc) Volume=tight

Monomer

0 1
N        0.217169    1.401081   -0.725818
C        0.040719    0.710928    0.552844
C       -1.304751   -0.023455    0.584801
O       -1.497838   -0.865545   -0.515151
C        1.214185   -0.275765    0.681849
O        1.302350   -1.039808   -0.495289
H        0.706498    2.287694   -0.629775
H       -0.665194    1.553803   -1.209939
H        0.055193    1.403297    1.418409
H       -2.127282    0.714565    0.573198
H       -1.376363   -0.572604    1.548494
H       -0.672915   -1.367729   -0.642761
H        1.064773   -0.966593    1.528421
H        2.156445    0.282247    0.865198
H        1.201650   -0.369675   -1.203967


