  16
        -21.78820068
 C         -0.4890702640       -1.5250466870       -0.2420291115
 C         -0.3757944924       -0.0636563526        0.2137912098
 C         -1.2007457980        0.8493570561       -0.6901495559
 O         -0.8915864712        0.0809896164        1.5263967515
 C          1.1036298707        0.3911799840        0.2105284378
 O          1.7184463463        0.3256870289       -1.0490520857
 H         -1.5041834842       -1.8751915703       -0.0700870089
 H          0.1955123988       -2.1616183675        0.3192416473
 H         -0.2727816302       -1.6170312186       -1.3034846440
 H         -0.7247946108        0.9321173055       -1.6629418044
 H         -1.2636201243        1.8350935892       -0.2384791957
 H         -2.2062397551        0.4551909099       -0.8050959775
 H         -0.4209807372       -0.5163681266        2.1183086916
 H          1.6638365017       -0.2068474828        0.9486004397
 H          1.1514422515        1.4391759698        0.5144138963
 H          1.7200253878       -0.5910598490       -1.3457598623
