  16
        -21.78699491
 C         -0.4677832899       -1.5344175910       -0.2040032175
 C         -0.3719013641       -0.0707467059        0.2186242212
 C         -1.1719787930        0.8226700724       -0.7301176024
 O         -0.8794785075        0.0097834041        1.5403556914
 C          1.1065384904        0.3739291286        0.2274382177
 O          1.6306987645        0.2941388585       -1.0777474944
 H         -1.5101757926       -1.8295324839       -0.2784908428
 H          0.0169075703       -2.1590334635        0.5412483055
 H          0.0212363140       -1.6665824719       -1.1636639936
 H         -0.7607589641        0.7442898802       -1.7315016526
 H         -1.1176897328        1.8631638932       -0.4113856760
 H         -2.2139722498        0.5131215088       -0.7416100839
 H         -0.9711256840        0.9376947809        1.7837616997
 H          1.6605723465       -0.2765911722        0.9177174904
 H          1.1686645068        1.4072661900        0.6059813715
 H          2.5677192761        0.5105544824       -1.0493751750
