  16
        -21.78376834
 C         -1.0360468176       -1.5455392540       -0.3863175713
 C         -0.3743422206       -0.2296152453        0.0469933674
 C         -1.1152112686        0.9637920328       -0.5568513910
 O         -0.3542042497       -0.1493602330        1.4623088825
 C          1.0999392800       -0.2267134214       -0.3930793923
 O          1.6337135547        1.0724280241       -0.2884344066
 H         -1.0387399444       -1.6364673264       -1.4686451479
 H         -2.0643601432       -1.5772325345       -0.0315799655
 H         -0.4985101642       -2.3891836060        0.0398297852
 H         -1.0790946996        0.9170846340       -1.6413206498
 H         -0.6379803123        1.8834778460       -0.2309959037
 H         -2.1566538348        0.9633137387       -0.2383782768
 H         -1.2444630497        0.0509732853        1.7708721958
 H          1.1673312421       -0.5820902522       -1.4320630465
 H          1.6375138741       -0.9270158607        0.2567254483
 H          2.5934305092        1.0149679074       -0.2946554111
