  16
        -21.78904684
 C         -0.5909278771       -1.4845284971       -0.4357971525
 C         -0.4484324326       -0.0186789198       -0.0240335703
 C         -1.6632048898        0.7976451885       -0.4563527533
 O         -0.3570416939        0.0857746807        1.3932762701
 C          0.8397656659        0.5752766267       -0.6473501011
 O          2.0000720504        0.0670054941       -0.0344820115
 H          0.3385124030       -2.0171100300       -0.2382133268
 H         -0.8115425000       -1.5583495468       -1.4968685299
 H         -1.3981967998       -1.9530130100        0.1236168211
 H         -1.7101680164        0.8597247377       -1.5395841628
 H         -1.5953765166        1.7996613297       -0.0417831171
 H         -2.5706656010        0.3321044122       -0.0819698475
 H          0.1635220855       -0.6590131695        1.7149692472
 H          0.8121202941        1.6697246616       -0.5639492775
 H          0.9046857744        0.3025138331       -1.7014848196
 H          1.9843678436        0.3511198468        0.8881789440
