  16
        -21.78798896
 C         -0.4585322721       -1.5309701008       -0.2426067245
 C         -0.3746482954       -0.0717487093        0.2111406145
 C         -1.1821681563        0.8276783904       -0.7275394986
 O         -0.8263789420        0.0650326569        1.5504326721
 C          1.0917628969        0.3847389691        0.2426523003
 O          1.6445814176        0.2894816745       -1.0503236585
 H         -1.4970316348       -1.8457819903       -0.3278942682
 H          0.0442201911       -2.1713426852        0.4785518387
 H          0.0258498340       -1.6354630346       -1.2083299267
 H         -0.7277148109        0.8185838946       -1.7132049325
 H         -1.1879110770        1.8469111898       -0.3479998796
 H         -2.2093255621        0.4757013498       -0.8044240160
 H         -1.7492836977       -0.2112285737        1.5827351039
 H          1.6351704187       -0.2507864676        0.9541385009
 H          1.1230362383        1.4180778593        0.6122750022
 H          2.5610878084        0.5789360869       -1.0112671733
