  16
        -21.79068276
 C         -0.5543323576       -1.4789144578       -0.4004148802
 C         -0.4439168052       -0.0027320361       -0.0246942846
 C         -1.6705522574        0.7771794934       -0.4962307615
 O         -0.3297901103        0.0451666303        1.3946761020
 C          0.8459448175        0.6048662420       -0.6180955767
 O          1.9855948339        0.0100240802       -0.0581689987
 H         -1.3695063549       -1.9357389477        0.1536348546
 H          0.3697941178       -1.9920621461       -0.1482673104
 H         -0.7376699114       -1.5815928080       -1.4656030561
 H         -1.5960706820        1.8244395357       -0.2050523131
 H         -2.5688103985        0.3549362520       -0.0518815745
 H         -1.7558022004        0.7266924211       -1.5778628404
 H         -0.4169333034        0.9615340044        1.6812754810
 H          0.8551952541        1.6917282549       -0.4267190832
 H          0.8890580481        0.4431839602       -1.6967788439
 H          1.7692299637       -0.1822896333        0.8667795169
