  16
        -21.78915971
 C         -0.4871388006       -1.5394732811       -0.2488437762
 C         -0.3743186160       -0.0837751468        0.2105337578
 C         -1.1931681642        0.8295252772       -0.7122909504
 O         -0.8096504758        0.0617070935        1.5523576316
 C          1.1073867422        0.3471693884        0.2359607300
 O          1.7278988117        0.3243102634       -1.0220053075
 H          0.0494954883       -1.6698086207       -1.1844508250
 H         -1.5289434793       -1.8209508024       -0.3935220861
 H         -0.0455852244       -2.1938595632        0.4989840494
 H         -2.2511711132        0.5845739453       -0.6335028499
 H         -0.8928129686        0.6977794706       -1.7488418664
 H         -1.0615112597        1.8707541731       -0.4244327227
 H         -1.7142554098       -0.2653948552        1.6160997051
 H          1.6626260192       -0.3528514550        0.8629101323
 H          1.1678216443        1.3415504865        0.6970798574
 H          1.3261760343        1.0020867116       -1.5762397224
