  16
        -21.78514289
 C         -0.5175943599       -1.4646797619       -0.3912601535
 C         -0.4410195669        0.0088162837        0.0347612621
 C         -1.6463827796        0.7769014274       -0.5236503141
 O         -0.4071283116        0.1121173353        1.4457506671
 C          0.8547448078        0.6720753335       -0.4814658746
 O          2.0341335106       -0.0223442047       -0.1883019015
 H          0.2341721213       -2.0479097076        0.1374882093
 H         -0.3658404716       -1.5623058489       -1.4638345050
 H         -1.4958414367       -1.8743056478       -0.1447493094
 H         -1.5821948627        1.8238832392       -0.2384245493
 H         -2.5717172541        0.3657213263       -0.1232727341
 H         -1.6773345591        0.7076582386       -1.6073882103
 H         -1.1941412852       -0.3100673872        1.8079246429
 H          0.9588994695        1.6421075231        0.0077860196
 H          0.7568880285        0.8276811349       -1.5667901847
 H          1.9675384407       -0.9154531122       -0.5433033768
