  16
        -21.78959440
 C         -1.0425412823       -1.5496865542       -0.3803693735
 C         -0.3893507016       -0.2246475506        0.0077264910
 C         -1.2394985761        0.9537570125       -0.4949625697
 O         -0.2937173261       -0.1824762576        1.4186984053
 C          1.0367323876       -0.1471559997       -0.5798089921
 O          1.7447667152        0.9657443586       -0.0822263634
 H         -0.4416952173       -2.3787083791       -0.0168209828
 H         -1.1415227052       -1.6239075768       -1.4595997073
 H         -2.0258046426       -1.6134809920        0.0764868313
 H         -0.8251103278        1.9028818498       -0.1579650616
 H         -2.2442748807        0.8691432032       -0.0902328130
 H         -1.2944693868        0.9510287668       -1.5808147423
 H          0.4598140915        0.3825752229        1.6392295050
 H          0.9978195457       -0.1380818763       -1.6758788706
 H          1.6061069093       -1.0212272115       -0.2547044128
 H          1.3551726409        1.7685194410       -0.4462201316
