%nprocshared=4
%mem=8000mb
#T wB97XD/def2svpp opt=tight freq int(grid=ultrafine) scf=(verytight,qc)

dimer

0 1
 O         -2.7045188401       -1.0624208439        1.8856729210
 C         -3.7255915077       -0.4058061522        1.1724306712
 C         -3.2783332623        0.0765970273       -0.2242639615
 C         -2.8948409323       -1.1435286295       -1.0976342162
 O         -1.9829894520       -2.0339371624       -0.5026315349
 C         -4.4581686924        0.7831801798       -0.9284430701
 O         -4.8963782675        1.9495170333       -0.2863114141
 C         -2.1383373588        1.1030517147       -0.0851550744
 O         -1.0349314449        0.6647609845        0.6784447075
 H         -2.3820589329       -1.7751337939        1.2997574728
 H         -4.0166634912        0.4477061722        1.7939659437
 H         -4.5955736162       -1.0698770897        1.0596814656
 H         -2.5172890480       -0.7868281119       -2.0619349785
 H         -3.8050476405       -1.7256484210       -1.2836878078
 H         -1.0712641392       -1.7383294238       -0.7004267588
 H         -5.2856585133        0.0703973571       -1.0480049374
 H         -4.1373396949        1.1041166065       -1.9226990539
 H         -5.3303627675        1.7179809660        0.5417976170
 H         -2.5570634898        2.0127704952        0.3659833253
 H         -1.7518329849        1.3623307392       -1.0753013370
 H         -1.3968624732        0.1600992665        1.4333538784
 O          5.1353005760       -0.2758843587        0.5808977837
 C          4.0469560520       -1.1233856380        0.3105385159
 C          2.7636948436       -0.3708763785       -0.0991964307
 C          2.9988889700        0.3988666760       -1.4158017267
 O          4.0448926231        1.3379470955       -1.3410128935
 C          1.6528326214       -1.4125291132       -0.3230420033
 O          0.4906642822       -0.8909630719       -0.9092297323
 C          2.3415695469        0.6007721149        1.0254328570
 O          3.2837010626        1.6156770123        1.2767824698
 H          5.2673513126        0.2727936525       -0.2128474796
 H          3.8668865139       -1.6893987823        1.2299924572
 H          4.3091835278       -1.8377187936       -0.4834999129
 H          2.0624073232        0.8894669613       -1.7115740901
 H          3.2772607186       -0.3051686647       -2.2056858200
 H          3.8247355566        1.9477258537       -0.6158333743
 H          1.4172190186       -1.8960193555        0.6359728710
 H          2.0116094896       -2.1805625129       -1.0143456191
 H          0.1078920175       -0.2057553710       -0.3170110723
 H          2.1560623247        0.0188096268        1.9406428238
 H          1.4157118793        1.1179372030        0.7576042852
 H          4.1253533971        1.1772670500        1.4896873584

