  11
        -17.62259387
 C         -1.6610262897       -1.0759184753       -0.0720319572
 C         -1.0624257457        0.3128434734        0.0968486109
 C          0.4434751718        0.3558248157        0.0186027548
 O          1.0097608711       -0.8534246343       -0.0618722471
 O          1.0950716265        1.3668275527        0.0321371001
 H         -2.7447893015       -1.0214214789       -0.0063879158
 H         -1.2980230836       -1.7463570366        0.7020050403
 H         -1.3915332276       -1.4938695844       -1.0382140610
 H         -1.3396341597        0.7349115368        1.0665220363
 H         -1.4430426504        0.9970139549       -0.6651529355
 H          1.9750788233       -0.7668908128       -0.1041794506
