  11
        -17.62306891
 C         -1.9190414840       -0.2114134667       -0.4119193116
 C         -0.7895311279       -0.5457254947        0.5641100058
 C          0.4766551739        0.1465965115        0.1270002043
 O          1.3813229342       -0.7178805098       -0.3514365377
 O          0.6769859982        1.3299264021        0.1696257035
 H         -2.0495940079        0.8660715139       -0.4749607327
 H         -2.8493468870       -0.6591687987       -0.0726375041
 H         -1.6910604950       -0.5934510044       -1.4042325604
 H         -0.6140335523       -1.6203013426        0.5980952720
 H         -1.0507177578       -0.1834509632        1.5594368505
 H          2.1786066674       -0.2495661413       -0.6467149405
