  11
        -17.61876743
 C         -1.8507582613       -0.4394000406       -0.4858966014
 C         -0.8309549451       -0.3500311181        0.6664582483
 C          0.4720859543        0.2064006732        0.1519687593
 O          1.2281758004       -0.7438785601       -0.4150398511
 O          0.8151997049        1.3560826079        0.2008497734
 H         -2.7163226043        0.1835136165       -0.2819242333
 H         -2.1874026905       -1.4623078749       -0.6252491533
 H         -1.4115660922       -0.1017201505       -1.4216801725
 H         -0.6400904517       -1.3379349881        1.0828994469
 H         -1.1956414934        0.3092997083        1.4525952603
 H          2.0463015006       -0.3610837483       -0.7693060740
