  11
        -17.62308882
 C         -1.8426841779       -0.4211999715        0.4826727065
 C         -0.8293820793       -0.3653751134       -0.6631167426
 C          0.4695830581        0.2014199307       -0.1504585235
 O          1.2365717672       -0.7426358177        0.4116152450
 O          0.7997450696        1.3550214759       -0.1974930944
 H         -2.0094887650        0.5741851978        0.8874549845
 H         -1.4787058628       -1.0667225179        1.2783661612
 H         -2.7895660991       -0.8135432116        0.1211322508
 H         -1.2013164699        0.2796254857       -1.4589051519
 H         -0.6501523672       -1.3686331356       -1.0490794934
 H          2.0514223468       -0.3527087654        0.7653756349
