  11
        -17.62368917
 C         -2.0293277968        0.0643127413       -0.0017118986
 C         -0.7594998733       -0.7741328304        0.0021573014
 C          0.4821361570        0.0802863469        0.0004073210
 O          1.5940560319       -0.6732371898       -0.0012987088
 O          0.5200776345        1.2796076409        0.0007050714
 H         -2.9059818566       -0.5777806470        0.0022162521
 H         -2.0596253350        0.6977114200       -0.8842281775
 H         -2.0585359705        0.7071084879        0.8740080140
 H         -0.7143713758       -1.4241090711       -0.8744142495
 H         -0.7158312202       -1.4175194682        0.8836986518
 H          2.3831101018       -0.1088690202       -0.0020188812
  11
        -17.62308882
 C         -1.8426841779       -0.4211999715        0.4826727065
 C         -0.8293820793       -0.3653751134       -0.6631167426
 C          0.4695830581        0.2014199307       -0.1504585235
 O          1.2365717672       -0.7426358177        0.4116152450
 O          0.7997450696        1.3550214759       -0.1974930944
 H         -2.0094887650        0.5741851978        0.8874549845
 H         -1.4787058628       -1.0667225179        1.2783661612
 H         -2.7895660991       -0.8135432116        0.1211322508
 H         -1.2013164699        0.2796254857       -1.4589051519
 H         -0.6501523672       -1.3686331356       -1.0490794934
 H          2.0514223468       -0.3527087654        0.7653756349
  11
        -17.62306891
 C         -1.9190414840       -0.2114134667       -0.4119193116
 C         -0.7895311279       -0.5457254947        0.5641100058
 C          0.4766551739        0.1465965115        0.1270002043
 O          1.3813229342       -0.7178805098       -0.3514365377
 O          0.6769859982        1.3299264021        0.1696257035
 H         -2.0495940079        0.8660715139       -0.4749607327
 H         -2.8493468870       -0.6591687987       -0.0726375041
 H         -1.6910604950       -0.5934510044       -1.4042325604
 H         -0.6140335523       -1.6203013426        0.5980952720
 H         -1.0507177578       -0.1834509632        1.5594368505
 H          2.1786066674       -0.2495661413       -0.6467149405
  11
        -17.62259387
 C         -1.6610262897       -1.0759184753       -0.0720319572
 C         -1.0624257457        0.3128434734        0.0968486109
 C          0.4434751718        0.3558248157        0.0186027548
 O          1.0097608711       -0.8534246343       -0.0618722471
 O          1.0950716265        1.3668275527        0.0321371001
 H         -2.7447893015       -1.0214214789       -0.0063879158
 H         -1.2980230836       -1.7463570366        0.7020050403
 H         -1.3915332276       -1.4938695844       -1.0382140610
 H         -1.3396341597        0.7349115368        1.0665220363
 H         -1.4430426504        0.9970139549       -0.6651529355
 H          1.9750788233       -0.7668908128       -0.1041794506
  11
        -17.62130896
 C         -2.0410930698        0.0589006256        0.0018952352
 C         -0.7585249179       -0.7721544574       -0.0027305583
 C          0.4849102542        0.0828029434       -0.0004956201
 O          1.5926061616       -0.6746477130        0.0017485008
 O          0.5279856711        1.2821923010       -0.0007569994
 H         -2.6386079586       -0.1442109643        0.8856776036
 H         -2.6470661509       -0.1473929691       -0.8753511456
 H         -1.7851277561        1.1163267090       -0.0012015127
 H         -0.6966339367       -1.4168945212       -0.8811681983
 H         -0.6949972389       -1.4251457355        0.8694082402
 H          2.3842086335       -0.1138495608        0.0027565837
  11
        -17.61876743
 C         -1.8507582613       -0.4394000406       -0.4858966014
 C         -0.8309549451       -0.3500311181        0.6664582483
 C          0.4720859543        0.2064006732        0.1519687593
 O          1.2281758004       -0.7438785601       -0.4150398511
 O          0.8151997049        1.3560826079        0.2008497734
 H         -2.7163226043        0.1835136165       -0.2819242333
 H         -2.1874026905       -1.4623078749       -0.6252491533
 H         -1.4115660922       -0.1017201505       -1.4216801725
 H         -0.6400904517       -1.3379349881        1.0828994469
 H         -1.1956414934        0.3092997083        1.4525952603
 H          2.0463015006       -0.3610837483       -0.7693060740
