  11
  -17.623689169999999       0.13495234667996150      !md3
 C         -2.0293277968        0.0643127413       -0.0017118986
 C         -0.7594998733       -0.7741328304        0.0021573014
 C          0.4821361570        0.0802863469        0.0004073210
 O          1.5940560319       -0.6732371898       -0.0012987088
 O          0.5200776345        1.2796076409        0.0007050714
 H         -2.9059818566       -0.5777806470        0.0022162521
 H         -2.0596253350        0.6977114200       -0.8842281775
 H         -2.0585359705        0.7071084879        0.8740080140
 H         -0.7143713758       -1.4241090711       -0.8744142495
 H         -0.7158312202       -1.4175194682        0.8836986518
 H          2.3831101018       -0.1088690202       -0.0020188812
  11
  -17.623689129999999       0.13494663456580352      !mtd3
 C         -2.0292822820        0.0643221398       -0.0020297702
 C         -0.7594943359       -0.7741378189        0.0026275897
 C          0.4821356244        0.0803047773        0.0001719381
 O          1.5940048500       -0.6731816958       -0.0014789971
 O          0.5200865320        1.2795349565        0.0009255182
 H         -2.0590983409        0.6974371818       -0.8847471570
 H         -2.0589248659        0.7073640918        0.8734874781
 H         -2.9059356618       -0.5777713169        0.0016180275
 H         -0.7142944617       -1.4248304277       -0.8733989610
 H         -0.7159695759       -1.4168122882        0.8847120299
 H          2.3830564375       -0.1088448416       -0.0020585867
  11
  -17.623688890000000       0.13491236695779515      !mtd3
 C         -2.0293612157        0.0641825150        0.0072952749
 C         -0.7594680807       -0.7739988632       -0.0100488817
 C          0.4822034238        0.0803453300       -0.0016898700
 O          1.5939431876       -0.6733025031        0.0062406724
 O          0.5201283724        1.2796663652       -0.0030279123
 H         -2.0599363073        0.6833058376        0.8999506000
 H         -2.9058709868       -0.5779244820       -0.0069474593
 H         -2.0585167881        0.7209277326       -0.8580667223
 H         -0.7180511637       -1.4054879279       -0.9003171868
 H         -0.7119283266       -1.4356461312        0.8574925548
 H          2.3832715622       -0.1092762054        0.0098411515
  11
  -17.623088820000000        7.1495496055408600E-002 !md7
 C         -1.8426841779       -0.4211999715        0.4826727065
 C         -0.8293820793       -0.3653751134       -0.6631167426
 C          0.4695830581        0.2014199307       -0.1504585235
 O          1.2365717672       -0.7426358177        0.4116152450
 O          0.7997450696        1.3550214759       -0.1974930944
 H         -2.0094887650        0.5741851978        0.8874549845
 H         -1.4787058628       -1.0667225179        1.2783661612
 H         -2.7895660991       -0.8135432116        0.1211322508
 H         -1.2013164699        0.2796254857       -1.4589051519
 H         -0.6501523672       -1.3686331356       -1.0490794934
 H          2.0514223468       -0.3527087654        0.7653756349
  11
  -17.623088820000000        7.1495496055408600E-002 !mtd11
 C         -1.8397430319       -0.4297453628       -0.4848166204
 C         -0.8316075392       -0.3581305883        0.6646245104
 C          0.4691860445        0.2035772083        0.1511694697
 O          1.2309513557       -0.7429327023       -0.4140808126
 O          0.8051921067        1.3553922493        0.2002165255
 H         -2.7879081815       -0.8181735828       -0.1224298121
 H         -1.4715605907       -1.0851070513       -1.2704027026
 H         -2.0058408622        0.5601296656       -0.9031795624
 H         -0.6530178784       -1.3564376848        1.0636397025
 H         -1.2075266527        0.2960124216        1.4510034662
 H          2.0470015169       -0.3555993562       -0.7679601845
  11
  -17.623088760000002        7.1490956829766736E-002 !mtd7
 C         -1.8393347795       -0.4318223889        0.4843696010
 C         -0.8319397334       -0.3558674561       -0.6654401316
 C          0.4691362206        0.2041531072       -0.1508603513
 O          1.2302520480       -0.7438196192        0.4130236151
 O          0.8058765404        1.3558772266       -0.1981839255
 H         -1.4706884104       -1.0902652496        1.2671856132
 H         -2.7877940718       -0.8187296018        0.1211274447
 H         -2.0050542681        0.5564485487        0.9067194699
 H         -1.2084141856        0.3010046501       -1.4492849528
 H         -0.6535058016       -1.3527529640       -1.0681009020
 H          2.0465275704       -0.3575812879        0.7675618729
  11
  -17.623088729999999        7.1488687324750930E-002 !mtd11
 C         -1.8394999579       -0.4309431925       -0.4849391258
 C         -0.8318720217       -0.3570525028        0.6648139702
 C          0.4689801576        0.2039588594        0.1509125048
 O          1.2303558625       -0.7430890401       -0.4141077988
 O          0.8059634814        1.3554651629        0.2003432857
 H         -2.0054111617        0.5581088122       -0.9053252065
 H         -2.7878354171       -0.8186641336       -0.1222465406
 H         -1.4709083945       -1.0878442612       -1.2690404443
 H         -0.6533489239       -1.3546546364        1.0656227376
 H         -1.2082513960        0.2983520337        1.4499079997
 H          2.0468193499       -0.3562702357       -0.7675671218
  11
  -17.623088710000001        7.1487174361701628E-002 !gc
 C         -1.8386946609       -0.4341491800        0.4846865724
 C         -0.8324830402       -0.3537617027       -0.6658645623
 C          0.4690654275        0.2047501907       -0.1508834253
 O          1.2288698737       -0.7440361751        0.4132753806
 O          0.8072523587        1.3560130824       -0.1983155453
 H         -2.7871649387       -0.8205957171        0.1210491183
 H         -2.0048302650        0.5525856891        0.9104058551
 H         -1.4687898553       -1.0948738464        1.2649460060
 H         -1.2098203616        0.3057681346       -1.4470595910
 H         -0.6541723578       -1.3491596425       -1.0722704948
 H          2.0456394451       -0.3588007737        0.7677860047
  11
  -17.623088700000000        7.1486417892050083E-002 !md1
 C         -1.8385076570       -0.4339467704       -0.4853916753
 C         -0.8325828613       -0.3543629916        0.6654219769
 C          0.4690221233        0.2047460160        0.1511269679
 O          1.2284244696       -0.7434006673       -0.4145175189
 O          0.8076551042        1.3557179666        0.2005136088
 H         -1.4676159165       -1.0927566510       -1.2668091438
 H         -2.0058085171        0.5533626095       -0.9093242723
 H         -2.7865737154       -0.8222885195       -0.1226378303
 H         -0.6541133206       -1.3501119713        1.0708935461
 H         -1.2102504639        0.3042868538        1.4471810671
 H          2.0453778677       -0.3581687237       -0.7685600448
  11
  -17.623068910000001        7.0004938964147570E-002 !mtd2
 C         -1.9190414840       -0.2114134667       -0.4119193116
 C         -0.7895311279       -0.5457254947        0.5641100058
 C          0.4766551739        0.1465965115        0.1270002043
 O          1.3813229342       -0.7178805098       -0.3514365377
 O          0.6769859982        1.3299264021        0.1696257035
 H         -2.0495940079        0.8660715139       -0.4749607327
 H         -2.8493468870       -0.6591687987       -0.0726375041
 H         -1.6910604950       -0.5934510044       -1.4042325604
 H         -0.6140335523       -1.6203013426        0.5980952720
 H         -1.0507177578       -0.1834509632        1.5594368505
 H          2.1786066674       -0.2495661413       -0.6467149405
  11
  -17.622593869999999        4.2346294435190210E-002 !gc
 C         -1.6610262897       -1.0759184753       -0.0720319572
 C         -1.0624257457        0.3128434734        0.0968486109
 C          0.4434751718        0.3558248157        0.0186027548
 O          1.0097608711       -0.8534246343       -0.0618722471
 O          1.0950716265        1.3668275527        0.0321371001
 H         -2.7447893015       -1.0214214789       -0.0063879158
 H         -1.2980230836       -1.7463570366        0.7020050403
 H         -1.3915332276       -1.4938695844       -1.0382140610
 H         -1.3396341597        0.7349115368        1.0665220363
 H         -1.4430426504        0.9970139549       -0.6651529355
 H          1.9750788233       -0.7668908128       -0.1041794506
  11
  -17.622592449999999        4.2282711123386128E-002 !gc
 C         -1.6600026346       -1.0788373379       -0.0499347689
 C         -1.0637264292        0.3162304078        0.0667602382
 C          0.4433401134        0.3564449897        0.0129619177
 O          1.0093418011       -0.8542799480       -0.0432850100
 O          1.0958518276        1.3669110265        0.0229828376
 H         -1.3113569237       -1.7135052408        0.7600712460
 H         -1.3733687764       -1.5400652840       -0.9911337969
 H         -2.7447438074       -1.0217327215       -0.0061994789
 H         -1.3587170713        0.7830915376        1.0101701687
 H         -1.4298649320        0.9641278930       -0.7332671685
 H          1.9752860969       -0.7692458912       -0.0723364059
  11
  -17.621308960000000        1.0872055535102350E-002 !gc
 C         -2.0410930698        0.0589006256        0.0018952352
 C         -0.7585249179       -0.7721544574       -0.0027305583
 C          0.4849102542        0.0828029434       -0.0004956201
 O          1.5926061616       -0.6746477130        0.0017485008
 O          0.5279856711        1.2821923010       -0.0007569994
 H         -2.6386079586       -0.1442109643        0.8856776036
 H         -2.6470661509       -0.1473929691       -0.8753511456
 H         -1.7851277561        1.1163267090       -0.0012015127
 H         -0.6966339367       -1.4168945212       -0.8811681983
 H         -0.6949972389       -1.4251457355        0.8694082402
 H          2.3842086335       -0.1138495608        0.0027565837
  11
  -17.618767429999998        7.3842321952702654E-004 !gc
 C         -1.8507582613       -0.4394000406       -0.4858966014
 C         -0.8309549451       -0.3500311181        0.6664582483
 C          0.4720859543        0.2064006732        0.1519687593
 O          1.2281758004       -0.7438785601       -0.4150398511
 O          0.8151997049        1.3560826079        0.2008497734
 H         -2.7163226043        0.1835136165       -0.2819242333
 H         -2.1874026905       -1.4623078749       -0.6252491533
 H         -1.4115660922       -0.1017201505       -1.4216801725
 H         -0.6400904517       -1.3379349881        1.0828994469
 H         -1.1956414934        0.3092997083        1.4525952603
 H          2.0463015006       -0.3610837483       -0.7693060740
