%nprocshared=4
%mem=8000mb
%chk=12.chk
%nprocshared=4
%mem=8000mb
#T wB97XD/def2svpp opt=tight freq int(grid=ultrafine) scf=(verytight,qc) Volume=tight

Monomer

0 1
C        1.963188    0.098914    0.000002
C        0.691512   -0.736137   -0.000002
C       -0.564691    0.101466   -0.000000
O       -1.671679   -0.660625    0.000002
O       -0.611100    1.302349   -0.000001
H        2.852085   -0.553146    0.000007
H        2.008617    0.749820    0.888091
H        2.008625    0.749816   -0.888089
H        0.644011   -1.404285    0.878388
H        0.644012   -1.404277   -0.878399
H       -2.435176   -0.057172    0.000002


