  50
        -62.57269517
 C          5.2978130054        0.6971369099        0.6975371384
 C          4.5310291623       -0.1123645825       -0.3428954919
 C          2.9973807142        0.0394772978       -0.3247903766
 C          2.3955691840       -0.2539957344        1.0605437195
 C          2.5287774579       -1.6921028175        1.5498362883
 C          2.6197691915        1.4838077690       -0.7232310409
 O          1.2355496314        1.6779644062       -0.9038339958
 C          2.4599130690       -0.9275346453       -1.4089505927
 O          1.0755337248       -0.8532446561       -1.6546660102
 H          5.0799041253        1.7580450257        0.6123646875
 H          6.3657787395        0.5592917497        0.5430170632
 H          5.0625431544        0.3710870083        1.7065973357
 H          4.7751351634       -1.1685788895       -0.2116622194
 H          4.8862393126        0.1759737887       -1.3357428285
 H          1.3384090666        0.0105848153        1.0469787929
 H          2.8718376055        0.4131900836        1.7809499506
 H          3.5647505656       -2.0215403495        1.5393992581
 H          1.9366504319       -2.3753020790        0.9467229989
 H          2.1641333493       -1.7574540990        2.5723987436
 H          3.1474797233        1.7483611981       -1.6514954575
 H          2.9229310101        2.1866357868        0.0567585555
 H          0.9357278956        0.9069024605       -1.4301354785
 H          2.7500132949       -1.9541768172       -1.1582474733
 H          2.9328478430       -0.6741453080       -2.3642059688
 H          0.5726262639       -1.2274973004       -0.9006316401
 C         -5.1019714595        1.2506344232       -0.5361797348
 C         -4.0572959726        0.2179690325       -0.9462513974
 C         -2.8627017598        0.0510727325        0.0109499480
 C         -3.2895426298       -0.2303561674        1.4623523539
 C         -4.1464692756       -1.4749501983        1.6616883501
 C         -2.0000401808       -1.0981645779       -0.5481591938
 O         -0.8604156665       -1.3900512529        0.2327492989
 C         -2.0144918218        1.3434098735       -0.0003667584
 O         -0.8616629020        1.2143291973        0.8167118422
 H         -5.8828307578        1.2921148004       -1.2926262587
 H         -4.6671162567        2.2423934991       -0.4489687507
 H         -5.5654590850        0.9893633268        0.4106376507
 H         -3.6657060091        0.4892871938       -1.9302020160
 H         -4.5480138796       -0.7510377826       -1.0545752227
 H         -3.8275710406        0.6427235606        1.8354031490
 H         -2.3866258592       -0.3281730625        2.0681641858
 H         -3.6066610058       -2.3711540420        1.3687795163
 H         -5.0690263744       -1.4204038382        1.0897292523
 H         -4.4066505841       -1.5695141123        2.7138365587
 H         -1.6810749043       -0.8323184953       -1.5676218394
 H         -2.5877681757       -2.0180607509       -0.6144363604
 H         -0.6706640837       -0.5600811687        0.7147062784
 H         -2.6135234304        2.1790843146        0.3822316584
 H         -1.7254895354        1.5725907385       -1.0310928391
 H         -0.0989497289        1.6024547165        0.3464799363
