  50
        -62.57167176
 C          5.1423260409        1.3539244985       -0.1304719816
 C          4.4466003096        0.0306207837        0.1756268881
 C          2.9044887622        0.0414999143        0.2170860507
 C          2.4236255983       -1.4232644324        0.3286121506
 C          2.3771392741       -2.2034236383       -0.9808418982
 C          2.4400793534        0.7980491600        1.4862312824
 O          1.0563036313        1.0633673586        1.5548485825
 C          2.3475625947        0.7553569447       -1.0303131956
 O          0.9399077835        0.7736485205       -1.0922289609
 H          6.2168913444        1.2261089583       -0.0176847102
 H          4.8271800147        2.1406153619        0.5496297746
 H          4.9502045446        1.6763752317       -1.1499729931
 H          4.7997125410       -0.3285819599        1.1459673707
 H          4.7606258215       -0.6971363562       -0.5748012799
 H          1.4293185827       -1.4507801422        0.7722221185
 H          3.0952241710       -1.9350330327        1.0236972981
 H          2.1467066786       -3.2453636653       -0.7702229752
 H          3.3319125283       -2.1686116442       -1.5008084801
 H          1.6034039757       -1.8160445054       -1.6371869948
 H          2.9091670029        1.7848158750        1.5177550110
 H          2.7648799258        0.2372343997        2.3730998257
 H          0.5455251531        0.2376415125        1.6449567807
 H          2.6991199602        0.2664881410       -1.9408452986
 H          2.7117057069        1.7915126511       -1.0316496531
 H          0.6722747929        1.0949756481       -0.2080577449
 C         -5.2302607058        0.3653389125       -0.9101345019
 C         -4.3805138754       -0.3873397239        0.1083114491
 C         -2.8542730305       -0.2554121318       -0.0594671808
 C         -2.3928787469        1.2120933070       -0.0771829101
 C         -2.6984556422        2.0165993028        1.1813037478
 C         -2.2155768758       -1.0356865255        1.1112632574
 O         -0.8094026809       -1.0386873937        1.1031609999
 C         -2.4353444730       -0.9234253884       -1.3940625619
 O         -1.0564245335       -1.1858863211       -1.5351662065
 H         -6.2826466653        0.1719386671       -0.7135493872
 H         -5.0129348528        0.0407481760       -1.9239570227
 H         -5.0698617934        1.4375778709       -0.8442510670
 H         -4.6365282540       -1.4488714855        0.0577157472
 H         -4.6478024038       -0.0432992964        1.1092639905
 H         -2.8521689897        1.7048394737       -0.9367592301
 H         -1.3149482507        1.2339909124       -0.2327623377
 H         -2.3695613344        3.0435052750        1.0383395689
 H         -2.1663128915        1.6151340979        2.0387391944
 H         -3.7627950556        2.0298443675        1.4006703776
 H         -2.5829321811       -2.0726006490        1.0765525219
 H         -2.5216360243       -0.6042270403        2.0667151364
 H         -0.5720496119       -1.3073340431        0.1918747889
 H         -2.7841121065       -0.3092846658       -2.2331056888
 H         -2.9139661916       -1.9051615647       -1.4670965813
 H         -0.5479702674       -0.3594183977       -1.6198298481
