  50
        -62.57271626
 C          4.1146190405        1.4860268063       -1.7135653830
 C          4.1102227042        0.5140095685       -0.5382264079
 C          2.7226041694        0.1471973838        0.0201543628
 C          1.7747853659       -0.4074898076       -1.0580359134
 C          2.2917166899       -1.6149593478       -1.8338310882
 C          2.9577492684       -0.8958602526        1.1381181735
 O          1.8013743750       -1.2943055204        1.8382460485
 C          2.0798672719        1.4032807455        0.6503740814
 O          0.8486668959        1.1589065066        1.2839773099
 H          5.1410440158        1.6776348736       -2.0191361567
 H          3.6626878120        2.4358204151       -1.4418352895
 H          3.5808254293        1.0783209556       -2.5670386949
 H          4.6985109370        0.9487723560        0.2741593804
 H          4.6152383410       -0.4054395490       -0.8409537684
 H          1.5507516623        0.3965744221       -1.7617309103
 H          0.8333622772       -0.6839353972       -0.5808849893
 H          1.5377860800       -1.9280810849       -2.5530658029
 H          2.4908155523       -2.4572787316       -1.1761815303
 H          3.2015652930       -1.3819995033       -2.3809663007
 H          3.6155852787       -0.4622943744        1.8980102421
 H          3.4688625102       -1.7719207861        0.7185203410
 H          1.1782091492       -1.7129064766        1.2257229239
 H          1.8742604284        2.1505992384       -0.1204422254
 H          2.7883240831        1.8388449707        1.3719263184
 H          0.9840799508        0.3698933688        1.8421101320
 C         -4.1039422045       -0.6506654244       -2.1880352810
 C         -4.1068114512       -0.2479619328       -0.7169542369
 C         -2.7222086030       -0.1412379099       -0.0511086224
 C         -1.7726335966        0.8094374207       -0.8014888346
 C         -2.2909233909        2.2284292948       -1.0134322655
 C         -2.9641056132        0.3491662847        1.3959690665
 O         -1.8107878185        0.4278307796        2.2022097203
 C         -2.0778596181       -1.5445090547        0.0092147302
 O         -0.8507182494       -1.5814388315        0.6946076521
 H         -5.1286669358       -0.7016543643       -2.5499354709
 H         -3.6494599616       -1.6272915285       -2.3289201128
 H         -3.5688454186        0.0729969217       -2.7959535614
 H         -4.6964728727       -0.9792671882       -0.1578838641
 H         -4.6137557296        0.7138504142       -0.6170523096
 H         -1.5441321266        0.3667646425       -1.7729377504
 H         -0.8333794617        0.8663738461       -0.2492190151
 H         -1.5354792060        2.8112774048       -1.5362509388
 H         -2.4953799308        2.7247655621       -0.0681729191
 H         -3.1979677282        2.2399712749       -1.6122655178
 H         -3.6217527783       -0.3603863757        1.9080104463
 H         -3.4779057525        1.3188086915        1.3718927531
 H         -1.1876740932        1.0621993801        1.8175584046
 H         -1.8657145942       -1.9074293462       -0.9998549087
 H         -2.7882220635       -2.2397241836        0.4828556894
 H         -0.9909808891       -1.0912337415        1.5267320298
