  50
        -62.57081170
 C          5.1928753369       -0.6406004612       -0.6302072741
 C          4.3195222822        0.3645125720        0.1139194553
 C          2.8382048468        0.4130873822       -0.3059117959
 C          2.1668877358       -0.9720993119       -0.2882873435
 C          2.2066850767       -1.7069879550        1.0473678646
 C          2.1332083014        1.3903241678        0.6599379384
 O          0.7653094740        1.5801204839        0.3944262170
 C          2.7406296586        0.9925540335       -1.7365213377
 O          1.4167760522        1.1537010045       -2.2080539073
 H          6.2137377870       -0.5703547908       -0.2612182449
 H          5.2104998263       -0.4410760185       -1.6982355429
 H          4.8486740541       -1.6582748198       -0.4715264979
 H          4.7427580244        1.3630013555       -0.0236978630
 H          4.3650558216        0.1425413552        1.1815143435
 H          2.6409842201       -1.5939717338       -1.0513986108
 H          1.1172820486       -0.8607390512       -0.5665482810
 H          3.2249033705       -1.8486073224        1.3993153030
 H          1.7510810243       -2.6866451856        0.9233067414
 H          1.6417909188       -1.1719731320        1.8051186610
 H          2.6536364067        2.3591061906        0.6156762356
 H          2.1972144341        1.0210810796        1.6856709667
 H          0.6839148761        1.7394538257       -0.5626878019
 H          3.3052292371        0.3622176787       -2.4326155883
 H          3.1746724234        1.9963454890       -1.7554155948
 H          1.0319552095        0.2811918538       -2.3547555537
 C         -2.3003630982        2.1590246056       -0.4820162520
 C         -2.2550311002        0.6725906393       -0.8169134346
 C         -2.8654424515       -0.2823184123        0.2296874391
 C         -4.3859958591       -0.0513892365        0.3018710465
 C         -5.1920056138       -1.0618329500        1.1132897403
 C         -2.5553708192       -1.7237221528       -0.2352267035
 O         -1.1830995938       -1.9514962445       -0.4306579873
 C         -2.2420041053       -0.0714744434        1.6276104383
 O         -0.8529872509       -0.2949196072        1.6902131753
 H         -1.7001169911        2.3889101873        0.3937009813
 H         -3.3192342177        2.4954476111       -0.3082410210
 H         -1.8983677294        2.7262243526       -1.3189846605
 H         -1.2168507366        0.3798048759       -0.9793829284
 H         -2.7818126312        0.5068236392       -1.7604181793
 H         -4.7766390214       -0.0445983594       -0.7186641550
 H         -4.5586652966        0.9396233558        0.7267567434
 H         -5.1449289390       -2.0528703814        0.6709667374
 H         -6.2353922178       -0.7534091951        1.1330815522
 H         -4.8415613094       -1.1201531361        2.1399589650
 H         -3.0409716439       -1.9184940610       -1.1962316215
 H         -2.9441726599       -2.4384355284        0.5029839241
 H         -0.7535241013       -1.6654266932        0.3969270456
 H         -2.6747175914       -0.7976141563        2.3220147469
 H         -2.4889479001        0.9326266026        1.9935852739
 H         -0.3831503543        0.4280518101        1.2313604060
