  50
        -62.57190830
 C          5.0336363092        1.3374548352       -0.1796899861
 C          3.9833650481        0.5926399722       -0.9993495008
 C          2.6935132883        0.1878265303       -0.2612795971
 C          1.6461809962       -0.2979528957       -1.2850489756
 C          2.0570589892       -1.4854281890       -2.1499161175
 C          3.0102652838       -0.9174805391        0.7688669986
 O          1.8993635143       -1.3484295679        1.5236609764
 C          2.1007175132        1.4037665272        0.4851793855
 O          0.8736437900        1.1291541669        1.1170103795
 H          4.6787741481        2.3177043865        0.1256319149
 H          5.9253338518        1.4796351575       -0.7868100593
 H          5.3189282906        0.7771644908        0.7063286527
 H          4.4447080272       -0.3144793283       -1.3943164727
 H          3.7050608641        1.2194663853       -1.8499582568
 H          1.4048865870        0.5439418013       -1.9391689643
 H          0.7324447212       -0.5644346838       -0.7526120854
 H          2.2974694549       -2.3567803640       -1.5461703008
 H          2.9137371377       -1.2497279285       -2.7761568982
 H          1.2289814516       -1.7538616949       -2.8024097502
 H          3.7176491944       -0.5343831230        1.5091171191
 H          3.4834532155       -1.7687494460        0.2626237863
 H          1.2381262463       -1.7405619425        0.9343938028
 H          1.9092846225        2.2178567398       -0.2204593762
 H          2.8201861401        1.7558232796        1.2363124259
 H          1.0199236434        0.3118360617        1.6291641391
 C         -4.3408463506       -0.6162160934       -1.9844063878
 C         -4.2259719755       -0.2651380862       -0.5046257867
 C         -2.7919218075       -0.1534099894        0.0458472320
 C         -1.9272259297        0.8447311895       -0.7446404086
 C         -2.4906722337        2.2576161841       -0.8610903819
 C         -2.9195409946        0.2779865211        1.5259224793
 O         -1.7034284469        0.3564628262        2.2340590301
 C         -2.1199172810       -1.5441418305       -0.0024763024
 O         -0.8405914244       -1.5825120901        0.5791091511
 H         -3.8807767419       -1.5766575788       -2.1989626565
 H         -3.8740495073        0.1401893590       -2.6085288118
 H         -5.3915385783       -0.6780447322       -2.2597834741
 H         -4.7532040296       -1.0274067321        0.0751017068
 H         -4.7393642006        0.6819878028       -0.3274354623
 H         -1.7714559246        0.4418621297       -1.7472859513
 H         -0.9460096954        0.9045900240       -0.2708047855
 H         -2.6316868521        2.7138759578        0.1154605855
 H         -3.4416359813        2.2690927603       -1.3874207616
 H         -1.7907907139        2.8772503653       -1.4177172111
 H         -3.5152976353       -0.4656990907        2.0645271265
 H         -3.4544088900        1.2348029268        1.5824959708
 H         -1.1299652720        1.0189688616        1.8213564606
 H         -1.9842946521       -1.8630101878       -1.0391946365
 H         -2.7771157665       -2.2718577770        0.4984660307
 H         -0.9202134069       -1.1294870321        1.4394237359
