  50
        -62.57279170
 C          5.0987626769       -0.4430301550        1.2610049422
 C          4.0504575487       -0.9610355896        0.2822578108
 C          2.8568608092       -0.0227385437        0.0281981776
 C          3.2829238459        1.3755223709       -0.4539412626
 C          4.1295714685        1.3976722746       -1.7211032109
 C          1.9589394291       -0.7122720862       -1.0239254838
 O          0.8839863868        0.1248030305       -1.4139241911
 C          2.0435870266        0.1303603724        1.3283242908
 O          0.8326031875        0.8391875456        1.1567910835
 H          5.8871039980       -1.1846164236        1.3710949604
 H          4.6681212935       -0.2623899030        2.2417994415
 H          5.5510902166        0.4776353725        0.9041127917
 H          3.6598946682       -1.9102878133        0.6584525847
 H          4.5355183327       -1.1709990533       -0.6727736910
 H          3.8283242440        1.8673192236        0.3536413679
 H          2.3796342366        1.9599381753       -0.6383196901
 H          5.0590656019        0.8495268208       -1.5916526857
 H          4.3772818812        2.4270717659       -1.9712842799
 H          3.5847770556        0.9716391379       -2.5587026123
 H          1.5772064289       -1.6467389642       -0.5966701884
 H          2.5562680967       -0.9700699606       -1.9080484675
 H          0.1149901459       -0.4364699296       -1.6283582195
 H          2.6264300629        0.6745918557        2.0781095674
 H          1.8146129826       -0.8678646280        1.7293061405
 H          0.6774319872        0.8578973846        0.1909867361
 C         -5.3013493128        0.4311998519       -0.9007136013
 C         -4.5234275451       -0.1761548743        0.2619376933
 C         -2.9958263775       -0.2713502094        0.0805520839
 C         -2.3607675584        1.0878056615       -0.2613957349
 C         -2.4146751070        2.1407571979        0.8402594523
 C         -2.4451204966       -0.8555557279        1.4055617179
 O         -1.0662647993       -1.1415291009        1.4160159275
 C         -2.6738343143       -1.2584159447       -1.0637054010
 O         -1.3004847568       -1.5488818242       -1.1882858187
 H         -6.3661297761        0.3845404084       -0.6827279806
 H         -5.1226719673       -0.1135579233       -1.8235294900
 H         -5.0382662749        1.4740505331       -1.0528559262
 H         -4.9045367892       -1.1846331927        0.4431420971
 H         -4.7286980062        0.4083898656        1.1611482138
 H         -2.8600551320        1.4759396044       -1.1507697175
 H         -1.3187304410        0.9278679772       -0.5375940357
 H         -3.4313245354        2.2956553251        1.1929710778
 H         -2.0452802790        3.0863062242        0.4499285759
 H         -1.7862599820        1.8675854597        1.6836797549
 H         -2.9378255396       -1.8165718463        1.5908146831
 H         -2.7032043667       -0.1859827732        2.2337389356
 H         -0.5470634524       -0.3092126577        1.4376398869
 H         -2.9820258383       -0.8415943839       -2.0257875897
 H         -3.2296663625       -2.1932020736       -0.8975337235
 H         -0.9898934593       -1.7048738955       -0.2716892241
