  50
        -62.57136427
 C          5.2370570920       -0.0592828600       -0.7757900375
 C          4.3795231164        0.3155563953        0.4283955328
 C          2.8611625059        0.3874808958        0.1811472796
 C          2.3058202422       -0.8809353123       -0.4874090459
 C          2.4071804476       -2.1630810536        0.3304058261
 C          2.2091947539        0.6473537690        1.5622646308
 O          0.8203589591        0.8724884083        1.5436797000
 C          2.5369794542        1.5832930005       -0.7432919985
 O          1.1606983364        1.7467685288       -0.9697033066
 H          5.0707899429        0.6212975364       -1.6061284782
 H          5.0316612300       -1.0728657795       -1.1081391545
 H          6.2881246276       -0.0040428954       -0.5002648580
 H          4.7060157481        1.2917968337        0.7965754480
 H          4.5665014605       -0.4057880372        1.2270754002
 H          2.8291174084       -1.0182904372       -1.4351708648
 H          1.2594980470       -0.6989363642       -0.7357602828
 H          3.4330372967       -2.3582560976        0.6326690467
 H          2.0676834677       -3.0022954474       -0.2730794879
 H          1.7824808624       -2.1191596981        1.2183453199
 H          2.6434702622        1.5619413454        1.9812132259
 H          2.4543399788       -0.1775521866        2.2418947947
 H          0.3501813152        0.0343161332        1.3621033151
 H          2.9864806856        1.4350761952       -1.7283931381
 H          2.9600921877        2.5007338094       -0.3053612374
 H          0.7536022967        1.7506681203       -0.0825083803
 C         -5.2323739903        0.4190492515       -0.7053698314
 C         -4.3543429463       -0.4156372815        0.2214076042
 C         -2.8445024026       -0.4045075162       -0.0858773008
 C         -2.2745151898        1.0185239431       -0.2222841778
 C         -2.4351216223        1.9131319714        1.0018664610
 C         -2.1548408781       -1.1831501766        1.0560526415
 O         -0.7640829559       -1.3285227205        0.9056224720
 C         -2.5961345297       -1.1620450645       -1.4115431135
 O         -1.2322701858       -1.2919617294       -1.7605772629
 H         -5.1439841822        0.0944678941       -1.7386146886
 H         -4.9785945496        1.4734165751       -0.6480962179
 H         -6.2730390537        0.3082190141       -0.4087416201
 H         -4.6985658232       -1.4526309436        0.1867430976
 H         -4.4979141653       -0.0657283239        1.2452922783
 H         -2.7505656376        1.4975343382       -1.0809739949
 H         -1.2075531427        0.9508468398       -0.4391379049
 H         -2.0695863649        2.9091566971        0.7632228177
 H         -1.8501197421        1.5390424115        1.8367085428
 H         -3.4748355271        1.9973376942        1.3062034010
 H         -2.6203946582       -2.1778957915        1.1275712553
 H         -2.3078954013       -0.6719144184        2.0087612231
 H         -0.6136837724       -1.6270711371       -0.0094114416
 H         -3.1403177183       -0.6714017422       -2.2263104524
 H         -2.9669211040       -2.1873450066       -1.3220339776
 H         -0.8835838251       -0.4228816382       -1.9965988465
