  50
        -62.57340702
 C          5.1414067054        1.2831535266        0.2316420182
 C          4.3927230165        0.0196244774       -0.1834988118
 C          2.8515954265        0.0784247325       -0.1638986669
 C          2.3128602497       -1.3403110163       -0.4504835563
 C          2.3459053965       -2.3185592926        0.7200336663
 C          2.3691337115        0.6327815329        1.1946075381
 O          0.9728650627        0.7912447182        1.3166231945
 C          2.3567834568        1.0074390931       -1.2953570179
 O          0.9566051379        1.1680718931       -1.3199858089
 H          4.8294242505        2.1443976469       -0.3525747582
 H          6.2066477008        1.1362086765        0.0662153215
 H          4.9960008510        1.5041075222        1.2854375199
 H          4.7119861000       -0.7918246070        0.4732166224
 H          4.6982675825       -0.2440016319       -1.1991679343
 H          2.9096245352       -1.7531977614       -1.2680559205
 H          1.2903785733       -1.2659364133       -0.8187921697
 H          3.3360549761       -2.3735867966        1.1670997423
 H          2.0860695519       -3.3118464168        0.3611216515
 H          1.6283083239       -2.0511556465        1.4911334915
 H          2.7672875696        1.6431589712        1.3231191281
 H          2.7598225464        0.0076284127        2.0053019403
 H          0.5224366874       -0.0725384589        1.3787241353
 H          2.6379629545        0.5924730417       -2.2674345123
 H          2.8275859027        1.9945018195       -1.1924758807
 H          0.7089812910        1.3434606055       -0.3906552810
 C         -5.0794546991        0.5328834173       -0.9490119817
 C         -4.3314883929       -0.3669094867        0.0299269114
 C         -2.7953141841       -0.2703954763       -0.0197979172
 C         -2.2811158766        1.1551747094        0.2502583924
 C         -2.8740675191        1.8507863409        1.4716610903
 C         -2.2485035708       -1.2495304933        1.0450444948
 O         -0.8454911375       -1.3495404467        1.0741622379
 C         -2.3184779827       -0.7333334261       -1.4193451286
 O         -0.9274290395       -0.9298771838       -1.5494583289
 H         -4.8084062343        1.5759542994       -0.8156803004
 H         -6.1501758202        0.4378306830       -0.7810883161
 H         -4.8768212952        0.2512636328       -1.9786029811
 H         -4.6165179594       -1.4039792115       -0.1661966227
 H         -4.6565358372       -0.1337484697        1.0450992105
 H         -2.4640491738        1.7714286142       -0.6329307185
 H         -1.2034604284        1.1019603069        0.3995682722
 H         -2.7139432129        1.2636645204        2.3717325247
 H         -3.9392103970        2.0332985256        1.3591640456
 H         -2.3798216236        2.8100076748        1.6083922227
 H         -2.6807299630       -2.2445863673        0.8604027980
 H         -2.5555758513       -0.9309045644        2.0437954764
 H         -0.5861865262       -1.4986151084        0.1440259628
 H         -2.6635934393       -0.0206944181       -2.1759608992
 H         -2.7653309505       -1.7089163475       -1.6388677461
 H         -0.4585217005       -0.0758920416       -1.6098183574
