  50
        -62.57243290
 C          5.1378121241       -0.9114062229        0.9316641161
 C          4.0430550846       -1.0343153900       -0.1228276501
 C          2.8827244135       -0.0292985202       -0.0071657035
 C          3.3544752250        1.4355565947        0.0037321172
 C          4.1230691526        1.8839167640       -1.2336303662
 C          1.9379488823       -0.2980111528       -1.1956055927
 O          0.8466822274        0.5949923080       -1.2659819052
 C          2.1043147610       -0.2917619720        1.3042676789
 O          0.9347207499        0.5059525794        1.3983808576
 H          4.7406267707       -1.0506423739        1.9332179348
 H          5.6267064688        0.0571970232        0.8818681026
 H          5.8912481048       -1.6771051612        0.7593616468
 H          3.6225674797       -2.0423109941       -0.0739070969
 H          4.4952475715       -0.9254318525       -1.1103487650
 H          3.9740330212        1.5887766665        0.8889221181
 H          2.4757551875        2.0733691672        0.1185719205
 H          4.4261737109        2.9219609254       -1.1143092162
 H          3.5028027507        1.8162773215       -2.1229819356
 H          5.0184058170        1.2864873022       -1.3847287644
 H          1.5608646808       -1.3296462576       -1.1181651940
 H          2.4800608534       -0.2147736179       -2.1414133208
 H          0.6958049773        0.8665678463       -0.3374343296
 H          2.7434660382       -0.0455996329        2.1604698750
 H          1.8446913901       -1.3528073588        1.3633240835
 H          0.1661240990       -0.0822108881        1.5340635103
 C         -5.2597882351        0.5547599290       -0.9069021818
 C         -4.5269535904       -0.3112097457        0.1125635067
 C         -2.9899849323       -0.3020956846        0.0125870219
 C         -2.4023795240        1.1163316100        0.1187509600
 C         -2.8226930095        1.9157196061        1.3476978593
 C         -2.4651420123       -1.2068191246        1.1505207963
 O         -1.0651747038       -1.3539355770        1.1744763152
 C         -2.5737820768       -0.9224134159       -1.3454077707
 O         -1.2076157826       -1.2507504012       -1.4611038335
 H         -5.0613304221        0.2231533500       -1.9222724521
 H         -4.9730968884        1.5986322323       -0.8196107820
 H         -6.3317004628        0.4848259011       -0.7347689773
 H         -4.8698707560       -1.3432252931        0.0013022962
 H         -4.8082363489        0.0112359363        1.1166435952
 H         -2.6777165078        1.6743946249       -0.7787554337
 H         -1.3154478290        1.0400705172        0.1298869310
 H         -2.3212082303        2.8807929230        1.3334492536
 H         -2.5370317539        1.4069518764        2.2641907473
 H         -3.8945610667        2.0927066240        1.3662396954
 H         -2.9317174256       -2.1978350677        1.0502528104
 H         -2.7508858798       -0.7998633280        2.1231375313
 H         -0.8246783796       -1.5849495211        0.2529395873
 H         -2.8644440193       -0.2486888173       -2.1592798901
 H         -3.1060058478       -1.8700111599       -1.4794239137
 H         -0.6633593541       -0.4424169657       -1.5610008244
