  50
        -62.57232014
 C          5.4399046960        0.8950117779        0.2442897373
 C          4.5242347872       -0.2722819809       -0.1136137544
 C          3.0087230771        0.0098160785       -0.1414156096
 C          2.2709495521       -1.3280700495       -0.3683111971
 C          2.1678866813       -2.2505084994        0.8427307193
 C          2.5784927098        0.7036385597        1.1695865766
 O          1.2148046533        1.0566376412        1.2333471629
 C          2.6790936409        0.9389076846       -1.3307144076
 O          1.3151727411        1.2875065904       -1.4079467834
 H          5.3008567458        1.2081440942        1.2753523873
 H          5.2741475511        1.7493358658       -0.4061738279
 H          6.4757618810        0.5833087584        0.1277183896
 H          4.7095201256       -1.0761197114        0.6010954461
 H          4.8080020781       -0.6432167206       -1.1017658995
 H          2.7968617784       -1.8554062119       -1.1687253924
 H          1.2645220768       -1.1252886724       -0.7341117811
 H          1.7766448500       -3.2136860157        0.5234190435
 H          1.4877954880       -1.8551216276        1.5921638719
 H          3.1389452835       -2.4197332359        1.3023539137
 H          3.1115203556        1.6545538208        1.2572959956
 H          2.8562269207        0.0773944532        2.0249580079
 H          0.6560838761        0.2557745445        1.3196008866
 H          2.9279053291        0.4433776120       -2.2738588995
 H          3.2766486878        1.8572507558       -1.2563289907
 H          1.0610272728        1.5093339100       -0.4872189439
 C         -4.9999295755        0.7142894020        1.3775910629
 C         -3.9850531761        1.1060992037        0.3090210333
 C         -2.8538529741        0.0916336727        0.0625604540
 C         -3.3720312161       -1.3144789693       -0.2886117325
 C         -4.3015640965       -1.3843918458       -1.4944838896
 C         -1.9866359018        0.6551729983       -1.0859542914
 O         -0.9688494451       -0.2567242605       -1.4611567782
 C         -1.9746385005       -0.0072699521        1.3243182084
 O         -0.8214604670       -0.8048461135        1.1481082253
 H         -5.5117002064       -0.2074930855        1.1168667692
 H         -5.7471492556        1.4995224937        1.4707227620
 H         -4.5243704187        0.5867592517        2.3459110105
 H         -3.5292230119        2.0584328648        0.5926769834
 H         -4.5125965791        1.2719203625       -0.6320859573
 H         -3.8831865880       -1.7219188851        0.5856001452
 H         -2.5090142787       -1.9527226307       -0.4866312309
 H         -5.1971518908       -0.7869509012       -1.3456253295
 H         -4.6073865729       -2.4161371485       -1.6544958379
 H         -3.7971343372       -1.0418557102       -2.3934620587
 H         -1.5452771535        1.6026117436       -0.7560923472
 H         -2.6197216628        0.8684585353       -1.9569944483
 H         -0.1826295315        0.2507017579       -1.7372691030
 H         -2.5420297776       -0.4505518161        2.1484624522
 H         -1.6636684650        1.0039238836        1.6259729935
 H         -0.7055473066       -0.8849192219        0.1798319532
