  50
        -62.57167242
 C          5.0988574548        1.3776948646       -0.1790150642
 C          4.4265047972        0.0424524657        0.1272366395
 C          2.8875104719        0.0417238118        0.2318966066
 C          2.4181360560       -1.4275600010        0.3297330105
 C          2.3488260204       -2.1870717896       -0.9910146259
 C          2.4717399213        0.7668045966        1.5352875948
 O          1.0924629868        1.0306266265        1.6612031528
 C          2.2744698615        0.7783212545       -0.9749239562
 O          0.8657104768        0.7640082410       -0.9929697830
 H          6.1782419523        1.2559678156       -0.1164067337
 H          4.8084570467        2.1466009385        0.5317415669
 H          4.8594914893        1.7210961134       -1.1815224903
 H          4.8216115874       -0.3345044825        1.0743633620
 H          4.7149244496       -0.6664686983       -0.6509173040
 H          1.4330333447       -1.4680623908        0.7932304146
 H          3.1075838174       -1.9460332615        1.0020447429
 H          2.1298886346       -3.2338428207       -0.7924362244
 H          3.2918677812       -2.1375778579       -1.5305950409
 H          1.5591102815       -1.7953975098       -1.6252066075
 H          2.9428153160        1.7521506607        1.5746100006
 H          2.8282548067        0.1836140692        2.3955210292
 H          0.5840050588        0.2016606524        1.7247692769
 H          2.6074099049        0.3233477368       -1.9099293520
 H          2.6152187769        1.8221945506       -0.9575092670
 H          0.6108086469        1.0556218961       -0.0951370748
 C         -5.2542154779        0.1872941606       -1.0279577972
 C         -4.3859807207       -0.3245703538        0.1170729125
 C         -2.8601579015       -0.2203680387       -0.0821189506
 C         -2.3993688044        1.2482656173       -0.1522535422
 C         -2.3903288813        2.0022541498        1.1732721873
 C         -2.2201208898       -0.9800030584        1.1016375290
 O         -0.8141750068       -0.9864414302        1.0992893122
 C         -2.4648047772       -0.9258250580       -1.4026311645
 O         -1.0903456637       -1.2125476733       -1.5408325993
 H         -6.3021051357        0.0971435804       -0.7500413971
 H         -5.0959325438       -0.3909957111       -1.9339453608
 H         -5.0569102012        1.2336593424       -1.2438754752
 H         -4.6365898391       -1.3741330925        0.2913800197
 H         -4.6477548569        0.2224175582        1.0247627510
 H         -3.0521932643        1.7717495804       -0.8534668475
 H         -1.3938237954        1.2878610133       -0.5704191364
 H         -2.1654040392        3.0504049215        0.9887515936
 H         -1.6273060186        1.6110906348        1.8397698611
 H         -3.3564501038        1.9479034258        1.6693382503
 H         -2.5862411122       -2.0178906556        1.0799493795
 H         -2.5307679804       -0.5352569469        2.0492564562
 H         -0.5736911438       -1.2750905563        0.1961028711
 H         -2.8045261211       -0.3208122831       -2.2521239601
 H         -2.9603175173       -1.9002857294       -1.4522830206
 H         -0.5712674103       -0.3908210868       -1.6090215439
