%nprocshared=4
%mem=8000mb
#T wB97XD/def2svpp opt=(tight,calcall) freq int(grid=ultrafine) scf=(verytight,qc)

dimer

0 1
 Cl         2.1865299490        1.1347176204        1.3577642062
 C          2.1921545431       -0.0004481882        0.0010745480
 Cl         1.6054565313       -1.5761086867        0.5470313596
 Cl         1.1398797798        0.6104076225       -1.2810536432
 Cl         3.8391903911       -0.1690116092       -0.6219862263
 Cl        -3.8406785751       -0.2672989894        0.5818697145
 C         -2.1922025195       -0.0000669594       -0.0010891618
 Cl        -1.6029962401       -1.4673608234       -0.7919144639
 Cl        -2.1835184586        1.3386579362       -1.1572231227
 Cl        -1.1438471237        0.3961714548        1.3655171267



