#T wB97XD/def2svpp opt=tight freq int(grid=ultrafine) scf=(verytight,qc)

Comment gs min

0 1
N          1.00683        0.02389       -0.26369
C          2.49413        0.07871       -0.10841
C          2.99779        1.49581       -0.50101
O          2.51062        1.94401       -1.76261
C          2.91724       -0.19854        1.35212
O          2.41932       -1.45604        1.80392
C          3.08537       -1.01043       -1.03800
O          2.60664       -0.85510       -2.37670
H          0.58392        0.77044        0.28586
H          0.67548       -0.85726        0.13294
H          4.09268        1.52160       -0.53108
H          2.67075        2.23653        0.23769
H          2.06722        1.17594       -2.17496
H          2.55233        0.57945        2.03290
H          4.00936       -0.22552        1.43413
H          1.54922       -1.29771        2.20749
H          2.80410       -2.01817       -0.71051
H          4.17932       -0.96011       -1.05829
H          1.63330       -0.93354       -2.30352
