  40
        -58.04991659
 C          4.1148247542        1.5930622026       -0.1940706776
 C          3.0679058297        0.4883157559       -0.0510101929
 C          1.9260072779        1.0077953102        0.8427058424
 O          0.9196419415        0.0620661769        1.1036128387
 C          2.5554440066        0.1120767928       -1.4611898405
 O          1.6818867367       -0.9892823262       -1.4906777952
 C          3.7229870580       -0.7457126759        0.6034135576
 O          2.8306627232       -1.8196071592        0.7924219468
 H          4.5034913831        1.8784607061        0.7805475829
 H          3.6767608691        2.4719175719       -0.6609759568
 H          4.9450336553        1.2539446559       -0.8088663664
 H          1.4342837350        1.8581986925        0.3601088135
 H          2.3607505541        1.3575223601        1.7921945494
 H          1.3683225356       -0.7776318217        1.3154763530
 H          3.4165948961       -0.1705588387       -2.0771863751
 H          2.0848366510        0.9921269021       -1.9159976743
 H          0.7916202936       -0.6871350070       -1.2291827019
 H          4.1035398303       -0.4849991464        1.5960844965
 H          4.5734685437       -1.0668070735       -0.0152159233
 H          2.4142873664       -1.9768895349       -0.0779736678
 C         -4.1106499004       -1.5966115190        0.1963528928
 C         -3.0664897750       -0.4894467268        0.0517741175
 C         -1.9239332666       -1.0068332490       -0.8423134027
 O         -0.9202797353       -0.0587448317       -1.1051906093
 C         -3.7250163356        0.7425265804       -0.6030590043
 O         -2.8355236036        1.8185923433       -0.7930654956
 C         -2.5540128911       -0.1109993232        1.4613539554
 O         -1.6825821626        0.9920962678        1.4894213572
 H         -3.6700623534       -2.4741485917        0.6633158363
 H         -4.4994627360       -1.8834672843       -0.7777641781
 H         -4.9411425289       -1.2592007600        0.8116951859
 H         -2.3585394451       -1.3587937693       -1.7910478206
 H         -1.4295543921       -1.8554040042       -0.3591818699
 H         -1.3712729455        0.7797505681       -1.3168891850
 H         -4.5760496021        1.0617935486        0.0157637380
 H         -4.1053501775        0.4802934008       -1.5954181259
 H         -2.4187011541        1.9770751370        0.0769085256
 H         -2.0814137753       -0.9897332049        1.9166274687
 H         -3.4153651676        0.1704478710        2.0776056602
 H         -0.7919644564        0.6913930503        1.2274195857
