  46
        -46.32226990
 C         -1.2286057168       -1.5753899086        1.0834551699
 C         -2.2537410675       -0.4825505545        1.3662574151
 C         -3.2664885900       -0.2098283319        0.2388907153
 C         -4.0582381243       -1.4832395162       -0.0801615877
 C         -4.2532817301        0.8519695136        0.7381379525
 C         -2.5893348091        0.2646654596       -1.0604145894
 C         -1.7832910077        1.5549394640       -0.9551062460
 H         -1.7088577283       -2.5418080572        0.9551167757
 H         -0.5368345656       -1.6524582539        1.9204408253
 H         -0.6539840253       -1.3544202058        0.1881426551
 H         -1.7257046249        0.4450311180        1.5961273998
 H         -2.8152821307       -0.7595981272        2.2622938230
 H         -4.4794091348       -1.9095946444        0.8277963377
 H         -3.4260741266       -2.2306602566       -0.5524926564
 H         -4.8758726886       -1.2565144111       -0.7612828404
 H         -3.7317135245        1.7361941525        1.0952064624
 H         -4.8457384219        0.4569841768        1.5608531257
 H         -4.9320162344        1.1485818261       -0.0586615058
 H         -3.3706279965        0.4061614911       -1.8118122742
 H         -1.9359683522       -0.5294844445       -1.4276849627
 H         -2.4133503379        2.3898385250       -0.6605727922
 H         -1.3455360837        1.7916469938       -1.9232843984
 H         -0.9759142789        1.4611269785       -0.2342285321
 C          2.0382101741        2.2479684980        0.1855547168
 C          2.1052873136        0.8275152217        0.7364939757
 C          3.1453514020       -0.0971143655        0.0779669279
 C          4.5614689612        0.4238278828        0.3494068416
 C          3.0189604029       -1.4831739842        0.7208497000
 C          2.9636232207       -0.2003810044       -1.4475386259
 C          1.5922868989       -0.6691987876       -1.9217581442
 H          2.9941740249        2.7549612833        0.2853848662
 H          1.2968001330        2.8209081783        0.7398110440
 H          1.7506923927        2.2534614644       -0.8623844718
 H          1.1204181549        0.3670379045        0.6439270966
 H          2.3330633813        0.8797367607        1.8045017546
 H          4.7201560600        0.5628235812        1.4166814803
 H          4.7345044082        1.3729791521       -0.1511677891
 H          5.3003069977       -0.2868262219       -0.0152341528
 H          2.0085396315       -1.8717113327        0.6259835364
 H          3.2587351806       -1.4290759704        1.7808151025
 H          3.7042745445       -2.1861995112        0.2521831529
 H          3.7179443913       -0.8942870329       -1.8278065543
 H          3.1735385267        0.7743132466       -1.8925227671
 H          1.3600680808       -1.6585888597       -1.5359025453
 H          1.5809557379       -0.7233152461       -3.0088879757
 H          0.8115767646        0.0201472050       -1.6130864526
