  46
        -46.32215122
 C         -4.9506409681        0.3009352631       -0.8768384094
 C         -3.7722619193       -0.6648416505       -0.8118918582
 C         -2.6948293152       -0.3331296243        0.2364825403
 C         -3.2874021596       -0.4096983950        1.6482085919
 C         -1.5906628078       -1.3914825147        0.1309686573
 C         -2.1007759339        1.0748889162        0.0463518766
 C         -1.5346202051        1.3734234411       -1.3378067097
 H         -5.6510510782       -0.0292064876       -1.6416892062
 H         -4.6255710322        1.3062568334       -1.1306958060
 H         -5.4821560570        0.3376300759        0.0702847195
 H         -3.3011166945       -0.7113666507       -1.7957250404
 H         -4.1560670061       -1.6649046161       -0.5935286630
 H         -3.7616191954       -1.3749794327        1.8121597967
 H         -4.0279296295        0.3697090029        1.8072599716
 H         -2.5034794157       -0.2839910784        2.3922498459
 H         -1.1624608563       -1.4177922309       -0.8679702264
 H         -1.9934331301       -2.3786942281        0.3484647993
 H         -0.7961824868       -1.1844398308        0.8449509361
 H         -1.3048373737        1.2042481909        0.7843061061
 H         -2.8703741222        1.8148546977        0.2752833860
 H         -0.7678209462        0.6550873925       -1.6148542696
 H         -1.0836600605        2.3638607202       -1.3424811884
 H         -2.3123425046        1.3548683654       -2.0965276714
 C          2.2162932817        2.1566703367        0.0317477159
 C          1.9693109405        0.8094761233        0.7016442218
 C          3.0922451303       -0.2319628802        0.5480635619
 C          4.3705154901        0.2613097190        1.2355570101
 C          2.6425218122       -1.5184993324        1.2504860591
 C          3.4275732718       -0.5240445992       -0.9260864755
 C          2.2548185098       -0.9610656915       -1.7972967658
 H          3.1068105207        2.6377230468        0.4274627248
 H          1.3693642613        2.8149065619        0.2161164344
 H          2.3291598421        2.0488982101       -1.0435918321
 H          1.0462600866        0.3870028921        0.3029990212
 H          1.8120288178        0.9775990041        1.7706695611
 H          4.1698779438        0.5264711322        2.2714417497
 H          4.7782523839        1.1325402330        0.7295711711
 H          5.1291934977       -0.5185461922        1.2240933011
 H          1.7034970534       -1.8832410597        0.8423351070
 H          2.4989108820       -1.3367538805        2.3137293707
 H          3.3921930489       -2.2986058948        1.1369220402
 H          4.1874492089       -1.3096122637       -0.9467680053
 H          3.8777189950        0.3674369735       -1.3675377188
 H          1.7786297046       -1.8537160553       -1.4004289237
 H          2.6098932661       -1.1874506901       -2.8009586882
 H          1.5093396394       -0.1743661232       -1.8760056314
