  46
        -46.32232586
 C         -2.2395200317        1.9882218705       -1.2083478818
 C         -2.1029858916        0.4923630094       -0.9457461475
 C         -3.0892498237       -0.1030902877        0.0750205434
 C         -4.5245494865        0.0021855979       -0.4529782923
 C         -2.7516666991       -1.5890790951        0.2425057903
 C         -3.0326988716        0.6110120000        1.4381201666
 C         -1.6630814566        0.6561933349        2.1070518088
 H         -1.5069314404        2.2958703232       -1.9523513045
 H         -2.0634063251        2.5673146969       -0.3056549994
 H         -3.2273951082        2.2337228286       -1.5889471925
 H         -1.0865818782        0.2870438419       -0.6079692998
 H         -2.2386111506       -0.0393987717       -1.8912618051
 H         -4.6028048079       -0.4475515035       -1.4404740665
 H         -4.8436809194        1.0390422887       -0.5204345162
 H         -5.2102967151       -0.5170507141        0.2133915769
 H         -1.7164901261       -1.7255636466        0.5435677948
 H         -2.8987942679       -2.1161700777       -0.6979043971
 H         -3.3929633215       -2.0456503257        0.9934201952
 H         -3.7296044398        0.1039691752        2.1106048505
 H         -3.3956537517        1.6333425019        1.3142911800
 H         -1.2768969857       -0.3445485537        2.2823748594
 H         -1.7429742654        1.1573761229        3.0699587882
 H         -0.9465376097        1.2064655045        1.5027902894
 C          1.2832021562       -1.8010759244       -0.9617541367
 C          1.7372604158       -1.0047146685        0.2570985158
 C          2.6619803013        0.1925693068       -0.0296093900
 C          1.9200470269        1.2535989239       -0.8504754022
 C          3.0496361166        0.8206870134        1.3140985743
 C          3.9247501397       -0.2125901533       -0.8118314177
 C          4.7823362757       -1.2975450890       -0.1692224437
 H          0.7446393738       -1.1737812491       -1.6669255875
 H          0.6148300055       -2.6007512583       -0.6475172857
 H          2.1273647142       -2.2531733662       -1.4752814304
 H          2.2445579317       -1.6811985105        0.9480276252
 H          0.8534784590       -0.6254715233        0.7761815805
 H          1.0099794524        1.5653296936       -0.3429213679
 H          1.6542482850        0.8768629151       -1.8347240142
 H          2.5487807224        2.1312539397       -0.9859191197
 H          3.5203040080        0.0915795579        1.9683702599
 H          2.1653493765        1.2024965940        1.8205272946
 H          3.7408923485        1.6473287018        1.1647951045
 H          4.5391039294        0.6821307847       -0.9425688006
 H          3.6277321927       -0.5443295888       -1.8087626853
 H          5.1365952425       -0.9904611020        0.8111558235
 H          5.6519562286       -1.4925044113       -0.7939669818
 H          4.2305856029       -2.2276286098       -0.0627090383
