  46
        -46.32218089
 C         -1.6819598602        0.6095281610       -1.8796031415
 C         -1.7845129923       -0.3492447783       -0.6983670415
 C         -3.0543893891       -0.2233607614        0.1620287881
 C         -4.2928176354       -0.5855934015       -0.6654556808
 C         -2.9417850160       -1.2280880498        1.3147844528
 C         -3.2536299939        1.1993966494        0.7163084672
 C         -2.0901893016        1.7662871268        1.5229187879
 H         -0.7557989224        0.4238157049       -2.4203968412
 H         -1.6758952470        1.6452415641       -1.5503857341
 H         -2.5081895765        0.4712667484       -2.5717541931
 H         -0.9162462892       -0.2068206473       -0.0529824248
 H         -1.7367838434       -1.3735750179       -1.0779001115
 H         -4.1757433612       -1.5671330546       -1.1197931946
 H         -4.4644452274        0.1413509484       -1.4550805958
 H         -5.1764988519       -0.6066782548       -0.0310416026
 H         -3.7942377542       -1.1394183819        1.9847627903
 H         -2.0331989812       -1.0682358316        1.8897906198
 H         -2.9178342386       -2.2443240695        0.9267007969
 H         -4.1428901887        1.1881834149        1.3519112757
 H         -3.4643118969        1.8746283248       -0.1155260456
 H         -1.8481658703        1.1281633112        2.3687092476
 H         -2.3578840411        2.7480640362        1.9088946532
 H         -1.2017669060        1.8820159664        0.9076712111
 C          1.5235373812       -0.5588717501        1.8079462020
 C          2.8885855001       -0.1782464730        1.2448221653
 C          2.9025044355        0.2863840626       -0.2231239337
 C          2.0705242838        1.5639285450       -0.3830938245
 C          4.3523382208        0.6150511160       -0.5982256728
 C          2.3337884358       -0.7734740830       -1.1846151392
 C          3.0115763445       -2.1387899986       -1.1428428501
 H          0.8420149538        0.2874417879        1.7890094958
 H          1.6319857095       -0.8767472297        2.8433923853
 H          1.0800234863       -1.3796394674        1.2502444713
 H          3.5612476378       -1.0318902515        1.3482260208
 H          3.3013160901        0.6291880540        1.8554789712
 H          2.3896037926        2.3213811886        0.3297322186
 H          1.0137204464        1.3663586220       -0.2275616874
 H          2.1898406415        1.9676297260       -1.3864288108
 H          4.7139487274        1.4522875921       -0.0047832232
 H          4.4237578267        0.8864642440       -1.6493170243
 H          5.0078948541       -0.2324713346       -0.4157140729
 H          2.4123673957       -0.3780529255       -2.2008928874
 H          1.2709894168       -0.9060058301       -0.9752813264
 H          2.9060384348       -2.6027484581       -0.1658385167
 H          4.0696777702       -2.0618892525       -1.3782489621
 H          2.5512530469       -2.7963196791       -1.8779178160
