  46
        -46.32224779
 C         -2.2013295082        1.9276896498       -1.2669318199
 C         -2.0985700222        0.4400646948       -0.9482228492
 C         -3.1246965602       -0.1026298578        0.0625364123
 C         -4.5420292771        0.0077570718       -0.5108384897
 C         -2.8181961658       -1.5871180391        0.2916131261
 C         -3.0939292112        0.6578663396        1.4010531507
 C         -1.7417984984        0.7056189193        2.1045203201
 H         -1.4443745485        2.1959841215       -2.0017411707
 H         -2.0384233657        2.5354841786       -0.3807562160
 H         -3.1744474510        2.1762672604       -1.6819618605
 H         -1.0965720368        0.2304648633       -0.5719540106
 H         -2.2152729516       -0.1224510697       -1.8783931642
 H         -4.8401586661        1.0466857047       -0.6257404506
 H         -5.2559562981       -0.4743805578        0.1538006107
 H         -4.6001663771       -0.4771150701       -1.4829855170
 H         -1.7948338927       -1.7291508400        0.6281872009
 H         -2.9466515932       -2.1448872088       -0.6337130442
 H         -3.4891504937       -2.0062564542        1.0384006899
 H         -3.8165113431        0.1849932776        2.0713232494
 H         -3.4371865780        1.6805681403        1.2321703077
 H         -1.3742903778       -0.2942340797        2.3201487256
 H         -1.8398327556        1.2374669631        3.0491060697
 H         -1.0020395752        1.2271928611        1.5028159583
 C          1.2777631919       -1.8999393600       -0.5916030259
 C          1.8062093793       -0.9218300586        0.4525151099
 C          2.6997735016        0.2124183795       -0.0824735077
 C          1.8917970639        1.1381636846       -0.9989895316
 C          3.1819189907        1.0379295039        1.1159969697
 C          3.9039515428       -0.3142567601       -0.8844363616
 C          4.8142368281       -1.2907574900       -0.1473627828
 H          0.6845860341       -1.3918497228       -1.3471448994
 H          0.6424979031       -2.6409410402       -0.1094942240
 H          2.0891148545       -2.4271771976       -1.0859129793
 H          2.3648627611       -1.4820244681        1.2051569436
 H          0.9560784150       -0.4635818612        0.9643725434
 H          1.0202790460        1.5286530577       -0.4783732949
 H          1.5558144563        0.6156389984       -1.8908841828
 H          2.5028240636        1.9814100906       -1.3144995277
 H          3.7048749650        0.4160763552        1.8377725983
 H          2.3352888728        1.4975859873        1.6220406229
 H          3.8545912755        1.8283454155        0.7900392473
 H          4.5007010017        0.5468027080       -1.1967183257
 H          3.5365372111       -0.7944135620       -1.7935932057
 H          5.2369495499       -0.8379490330        0.7455035403
 H          5.6373005418       -1.5828628336       -0.7968316614
 H          4.2786192651       -2.1911524832        0.1411206738
