  46
        -46.32220868
 C         -2.2019988537       -0.0402061363       -1.7876937300
 C         -2.1195275757       -0.7818434739       -0.4579385845
 C         -3.1136698191       -0.3290539787        0.6266293035
 C         -4.5500801132       -0.6287649546        0.1828245022
 C         -2.8295785566       -1.1419369357        1.8951778672
 C         -3.0152991080        1.1777288975        0.9285785138
 C         -1.6366485227        1.6844305666        1.3385516921
 H         -1.4726825819       -0.4536695973       -2.4822231591
 H         -1.9869647267        1.0180805618       -1.6652897346
 H         -3.1866001967       -0.1437467396       -2.2356134252
 H         -1.1062109683       -0.6828771896       -0.0637891964
 H         -2.2864937178       -1.8464615765       -0.6427697223
 H         -4.6568089906       -1.6775317873       -0.0860280027
 H         -4.8311729765       -0.0229178354       -0.6746862683
 H         -5.2465452000       -0.4111343228        0.9898862559
 H         -1.7980177774       -1.0241711773        2.2172744522
 H         -3.0039470887       -2.2000803381        1.7111366689
 H         -3.4811751347       -0.8251122916        2.7065960192
 H         -3.7212054936        1.4032746534        1.7322697226
 H         -3.3452976516        1.7340460451        0.0488726524
 H         -1.2779667692        1.1765363009        2.2299936485
 H         -1.6907619574        2.7489810627        1.5588290837
 H         -0.9109197057        1.5449049622        0.5426871644
 C          2.0653231393        2.1391094793       -0.5308684880
 C          1.8535779773        0.7090232273       -1.0161184543
 C          2.5149470505       -0.3914399367       -0.1666017924
 C          1.9247380124       -0.4008301577        1.2482184096
 C          2.2014724522       -1.7425148410       -0.8199953409
 C          4.0379313044       -0.2020295067       -0.0403481078
 C          4.8080467096       -0.1247481009       -1.3542365693
 H          1.6791644066        2.2764441374        0.4757587684
 H          1.5395947230        2.8288466392       -1.1887303576
 H          3.1184685371        2.4069725393       -0.5372840998
 H          2.2210881096        0.6283759308       -2.0410325908
 H          0.7802474137        0.5077820565       -1.0489046553
 H          0.8413077279       -0.4885004019        1.2118055518
 H          2.1779708164        0.5080723592        1.7877084432
 H          2.3144775996       -1.2458202174        1.8122118381
 H          2.5280205143       -1.7632355471       -1.8564738088
 H          1.1297842751       -1.9301222317       -0.8030885730
 H          2.6971222197       -2.5503277412       -0.2858911195
 H          4.4315804379       -1.0383210762        0.5433757402
 H          4.2317478892        0.7066750475        0.5331612385
 H          4.6700198502       -1.0260237572       -1.9454946702
 H          5.8713475593       -0.0186844321       -1.1476232370
 H          4.4949674278        0.7305804253       -1.9469557942
