  46
        -46.32226553
 C         -4.7598681723        1.1169786162       -0.9756181889
 C         -3.8218353215       -0.0582051028       -1.2297560623
 C         -2.6808189359       -0.2353111798       -0.2113217038
 C         -3.2529034981       -0.5515229698        1.1754101273
 C         -1.8334103797       -1.4326282692       -0.6566438885
 C         -1.8025164646        1.0232119291       -0.0855502570
 C         -1.1900306235        1.5388094075       -1.3836848619
 H         -5.2493800084        1.0283624822       -0.0094645328
 H         -5.5323848737        1.1390693579       -1.7419711520
 H         -4.2272975939        2.0635993234       -1.0086985042
 H         -3.3884651845        0.0474322080       -2.2263179169
 H         -4.4126629526       -0.9779700183       -1.2340332627
 H         -3.9170034304       -1.4118747752        1.1280636583
 H         -3.8099681195        0.2925028035        1.5735026968
 H         -2.4483563795       -0.7794637510        1.8717643330
 H         -1.4320577462       -1.2826873898       -1.6555332195
 H         -2.4385118592       -2.3368379601       -0.6707239529
 H         -1.0038977164       -1.5919509318        0.0285242227
 H         -0.9957537058        0.7978231644        0.6164396544
 H         -2.3976082175        1.8221303557        0.3616262765
 H         -0.5655100583        0.7845829455       -1.8548549719
 H         -0.5667037893        2.4063954491       -1.1742761688
 H         -1.9580123116        1.8421757351       -2.0900017558
 C          1.5204583201        0.0980982959        2.3316241498
 C          2.9317591988       -0.1117437472        1.7935965811
 C          3.1153242102        0.1314992116        0.2842205390
 C          2.8535521866        1.6048645317       -0.0487952582
 C          4.5725303582       -0.1851483429       -0.0708726883
 C          2.1620001959       -0.7215773161       -0.5716392300
 C          2.2314941356       -2.2277432883       -0.3439989021
 H          1.1740853782        1.1111731530        2.1445877556
 H          1.5112292393       -0.0657648238        3.4076345239
 H          0.8189290356       -0.5995611188        1.8816465037
 H          3.2471596739       -1.1308813496        2.0262913918
 H          3.6089310862        0.5614994400        2.3257285852
 H          3.4707833428        2.2532141239        0.5694357687
 H          1.8107246050        1.8645742853        0.1122930336
 H          3.0901933236        1.8023086923       -1.0922599652
 H          4.8348278919       -1.2008769752        0.2136486905
 H          5.2436869790        0.4933492366        0.4517049013
 H          4.7388480320       -0.0727881115       -1.1401016317
 H          2.3845521272       -0.5195046661       -1.6227679520
 H          1.1399048110       -0.3862532612       -0.3916932642
 H          3.2253124262       -2.6134666916       -0.5550675361
 H          1.5287719735       -2.7292928832       -1.0069502311
 H          1.9706140759       -2.4868655658        0.6787592839
