  46
        -46.32235978
 C         -2.2563683945        2.0065609812       -1.1636468853
 C         -2.1198809646        0.5047335175       -0.9380415646
 C         -3.0769179441       -0.1083533278        0.0999942989
 C         -4.5275935130        0.0186277518       -0.3791119905
 C         -2.7453651210       -1.6002108330        0.2213334061
 C         -2.9726798288        0.5729771894        1.4770543364
 C         -1.5838885015        0.5904489090        2.1064270205
 H         -1.5458803704        2.3267924621       -1.9235674109
 H         -2.0485220237        2.5650837643       -0.2547801423
 H         -3.2543406470        2.2650919407       -1.5075165715
 H         -1.0942361327        0.2874801460       -0.6378085294
 H         -2.2878876219       -0.0058125781       -1.8899552800
 H         -4.6399217853       -0.4041263077       -1.3752171278
 H         -4.8422336061        1.0586495160       -0.4087559386
 H         -5.1950805425       -0.5145343812        0.2948005708
 H         -1.7016401226       -1.7521686400        0.4832829486
 H         -2.9288416680       -2.1038681064       -0.7255218890
 H         -3.3642706155       -2.0697343799        0.9829607417
 H         -3.6544542243        0.0567857182        2.1579499812
 H         -3.3289933574        1.6011644128        1.3877082243
 H         -1.2011529280       -0.4172313825        2.2460265878
 H         -1.6313239144        1.0684627938        3.0832150701
 H         -0.8806977145        1.1499221015        1.4950042743
 C          1.3257369054       -1.6209608257       -1.3390481841
 C          1.6990769250       -1.0569630197        0.0277018529
 C          2.6311861205        0.1683299172        0.0170147865
 C          1.9458043851        1.3536821002       -0.6724076455
 C          2.9064114475        0.5621073452        1.4729290931
 C          3.9549472868       -0.1050424799       -0.7203340760
 C          4.7740856064       -1.2807134107       -0.1986982786
 H          0.8258530126       -0.8756278891       -1.9516863228
 H          0.6453512081       -2.4612834214       -1.2136004291
 H          2.2030559334       -1.9763253927       -1.8726878139
 H          2.1669928750       -1.8478096284        0.6174054501
 H          0.7824652572       -0.7722067544        0.5500663718
 H          0.9868274210        1.5683656384       -0.2064253553
 H          1.7788688788        1.1539642192       -1.7276574411
 H          2.5665665863        2.2438175160       -0.5937794646
 H          3.3259694612       -0.2695904851        2.0327641050
 H          1.9824784698        0.8625594182        1.9629682669
 H          3.6038083290        1.3957235616        1.5188654445
 H          4.5664271926        0.7988511334       -0.6559768581
 H          3.7392442625       -0.2699896963       -1.7779205108
 H          5.0441432132       -1.1405894130        0.8445513779
 H          5.6936797710       -1.3678528618       -0.7742410948
 H          4.2293140011       -2.2162144768       -0.2935368831
