  46
        -46.32219013
 C         -4.9816767588       -0.2957873997       -0.1913262686
 C         -3.9124477842        0.3575380182       -1.0603601836
 C         -2.4584473441       -0.0398814897       -0.7452971890
 C         -2.2464061208       -1.5335436933       -1.0186055326
 C         -1.5417867054        0.7496643544       -1.6869289597
 C         -2.0795317712        0.2298263919        0.7221014516
 C         -2.2259536566        1.6737388906        1.1902068707
 H         -4.9439519698       -1.3791694117       -0.2677454861
 H         -5.9670369997        0.0295735144       -0.5195329501
 H         -4.8675847690       -0.0172550000        0.8528909314
 H         -4.0061194582        1.4420262053       -0.9743455341
 H         -4.1101745731        0.1016653633       -2.1046366968
 H         -2.5622144351       -1.7868840745       -2.0283330902
 H         -2.8089367708       -2.1450865083       -0.3178797959
 H         -1.1938652380       -1.7897529597       -0.9165958992
 H         -1.7091318054        1.8196380639       -1.5950079615
 H         -1.7322322772        0.4675567841       -2.7204017749
 H         -0.4963336643        0.5452667408       -1.4670636760
 H         -1.0407198873       -0.0782695162        0.8610748905
 H         -2.6870495942       -0.4107871519        1.3643366271
 H         -1.6010995915        2.3441181939        0.6059014823
 H         -1.9192250551        1.7523412645        2.2316299478
 H         -3.2567687519        2.0100574924        1.1180776213
 C          1.8573695781        1.8820722968        0.5689435482
 C          3.0472217596        1.0066691787        0.9476547034
 C          3.2164721147       -0.2859766824        0.1280349780
 C          3.4966034732        0.0526041688       -1.3408463159
 C          4.4314145779       -1.0395447446        0.6814902079
 C          1.9681740271       -1.1854617478        0.1761565439
 C          1.5045181480       -1.6049776433        1.5669133915
 H          1.9077606714        2.1888653717       -0.4725123042
 H          1.8559910312        2.7805913987        1.1831509078
 H          0.9170539554        1.3644754503        0.7339971171
 H          2.9663109138        0.7444890713        2.0045752623
 H          3.9615093886        1.5951450795        0.8340613316
 H          2.6326670356        0.5155340271       -1.8109197063
 H          3.7354870573       -0.8517827963       -1.8966698345
 H          4.3396488722        0.7352941496       -1.4220411269
 H          4.3243607099       -1.2298732535        1.7462330579
 H          5.3362697726       -0.4534875815        0.5348469827
 H          4.5558773128       -1.9923176481        0.1712822934
 H          2.1812995206       -2.0866387911       -0.4051708294
 H          1.1480785302       -0.6694926598       -0.3272228412
 H          2.2763309156       -2.1671893245        2.0855710797
 H          0.6255244560       -2.2417760844        1.4827346123
 H          1.2382715123       -0.7429029109        2.1729249466
