  46
        -46.32221699
 C         -4.8769723975        0.9871604611       -0.6755791130
 C         -3.8695236022        0.0727379188       -1.3642892337
 C         -2.7439123816       -0.4775529290       -0.4694003642
 C         -3.3299019509       -1.3747105810        0.6268994277
 C         -1.8243654969       -1.3374706491       -1.3441147770
 C         -1.9354712454        0.6390724528        0.2160834021
 C         -1.2960680292        1.6622353565       -0.7167305182
 H         -5.6320490288        1.3034236090       -1.3928069532
 H         -4.3969401247        1.8779125599       -0.2794004212
 H         -5.3823686733        0.4742948741        0.1382997182
 H         -3.4204542340        0.6125293885       -2.2004207431
 H         -4.4078260705       -0.7797135745       -1.7868714840
 H         -3.9557169853       -2.1512871167        0.1925117359
 H         -3.9301224011       -0.7996544066        1.3271346915
 H         -2.5302338907       -1.8548996040        1.1872222556
 H         -1.4365336166       -0.7694292475       -2.1856685389
 H         -2.3722111918       -2.1902309128       -1.7398609493
 H         -0.9837697848       -1.7116175304       -0.7645956089
 H         -1.1487629346        0.1635382124        0.8075964348
 H         -2.5865355295        1.1644114345        0.9177233153
 H         -0.6101777579        1.1874504624       -1.4137258196
 H         -0.7340302198        2.3884914830       -0.1323710957
 H         -2.0481223114        2.2011178713       -1.2866411425
 C          2.1166990399        1.8839006468        1.4592640898
 C          3.2674521641        0.8862552917        1.3829104633
 C          3.2333322873       -0.0823940670        0.1866010330
 C          3.3718570072        0.6955571020       -1.1271953424
 C          4.4347670227       -1.0266861756        0.3086050429
 C          1.9253822441       -0.8911020746        0.1195149939
 C          1.5769951485       -1.6935438778        1.3687241110
 H          2.0809299498        2.5116161402        0.5729116829
 H          2.2518211669        2.5312562609        2.3237938606
 H          1.1609964978        1.3783012158        1.5651753452
 H          3.2884825432        0.3034808554        2.3060364899
 H          4.2069068295        1.4432718618        1.3355508412
 H          4.2569226839        1.3277254310       -1.1066314326
 H          2.5033873484        1.3243498063       -1.3051851421
 H          3.4645309151        0.0066089701       -1.9642380574
 H          4.4279682314       -1.5513325885        1.2605376912
 H          5.3638597924       -0.4642939752        0.2427615332
 H          4.4251284482       -1.7638738981       -0.4914510611
 H          2.0005373752       -1.5801142168       -0.7262287189
 H          1.1051832898       -0.2055282181       -0.0979930108
 H          2.3597172153       -2.4073981928        1.6108504032
 H          0.6574436769       -2.2522249795        1.2013813967
 H          1.4229806609       -1.0443894923        2.2266974267
