%nprocshared=4
%mem=8000mb
%chk=dimer.chk
%nprocshared=4
%mem=8000mb
#T wB97XD/def2svpp opt=tight freq int(grid=ultrafine) scf=(verytight,qc) Volume=tight

Dimer

0 1
 C         -2.8574109379        1.0998759298       -1.8657566815
 C         -2.0735839977        0.0569305749       -1.0765064310
 C         -2.7582097560       -0.4749672279        0.1958115773
 C         -4.0514084890       -1.2125954610       -0.1701148722
 C         -1.8113308581       -1.4817101304        0.8591710446
 C         -3.1159724462        0.6485022986        1.1862477413
 C         -1.9546257754        1.5250211562        1.6434698883
 H         -2.2889903212        1.3921701100       -2.7467691193
 H         -3.0372875870        1.9919236631       -1.2717807561
 H         -3.8138100686        0.7064547569       -2.1994327363
 H         -1.1081711087        0.4850696594       -0.8026608018
 H         -1.8747980671       -0.7960648926       -1.7311765530
 H         -3.8554911970       -1.9818610401       -0.9140393081
 H         -4.7953235050       -0.5280900456       -0.5692546033
 H         -4.4745151745       -1.6904488794        0.7110794990
 H         -0.8506794728       -1.0278620160        1.0876225659
 H         -1.6339671995       -2.3263083963        0.1964536492
 H         -2.2411101010       -1.8580642048        1.7850452752
 H         -3.5689898822        0.1860743366        2.0671816303
 H         -3.8782538439        1.2854171534        0.7330384498
 H         -1.1904695035        0.9383468306        2.1461688474
 H         -2.3176299549        2.2729605180        2.3458605463
 H         -1.4972626659        2.0455504419        0.8065208441
 C          1.6973964823        1.7816062509       -1.0319905878
 C          1.8627869137        0.9651941863        0.2451649196
 C          3.0362459592       -0.0309459829        0.2576000093
 C          4.3692828646        0.7228426709        0.1870561537
 C          2.9923425022       -0.7937142943        1.5868163443
 C          2.9864411751       -1.0182457718       -0.9228886919
 C          1.7068909008       -1.8383986418       -1.0482890745
 H          2.5889643246        2.3651969098       -1.2448361718
 H          0.8647803307        2.4737750734       -0.9183274471
 H          1.4888693548        1.1429373801       -1.8862577549
 H          0.9385935641        0.4152050312        0.4312153945
 H          1.9978054160        1.6542594541        1.0831552022
 H          4.4291134226        1.4696555568        0.9758974523
 H          4.4881335228        1.2229801872       -0.7706125041
 H          5.1999471116        0.0308042280        0.3090401324
 H          2.0353207415       -1.2903562670        1.7252433419
 H          3.1379979957       -0.1082018522        2.4191974078
 H          3.7778415646       -1.5454090433        1.6228124732
 H          3.8303661916       -1.7053481568       -0.8189641801
 H          3.1393683382       -0.4632652068       -1.8506734412
 H          1.7921735741       -2.5184317833       -1.8938666718
 H          0.8428872435       -1.2019362854       -1.2159398987
 H          1.5308507306       -2.4340873238       -0.1566295998


