  17
        -39.50564559
 O         -1.1836938972       -0.9737896426       -1.9089965303
 C         -1.3481969960       -0.6345906583       -0.5495189426
 C         -0.0529800122        0.0315808781       -0.0793503016
 C          0.5018037199        1.0633818384       -1.0921336692
 O         -0.5073967035        1.8278025183       -1.6637158927
 N         -0.2769368035        0.7073226466        1.2565313276
 O          0.6883309158        1.2420105912        1.7292272903
 O         -1.3777243283        0.6509693286        1.7271718747
 N          0.9920783030       -1.0385815549        0.1909649857
 O          2.0841121958       -0.8768888903       -0.2684630640
 O          0.6179744942       -1.9596724843        0.8657083932
 H         -1.8906906560       -1.5686817520       -2.1762177844
 H         -1.5377479199       -1.5169462565        0.0743203968
 H         -2.1766150886        0.0745355386       -0.4155837692
 H          1.0799427383        0.5163725992       -1.8460884882
 H          1.1739165283        1.7464815922       -0.5633782088
 H         -0.9744824971        1.2873382735       -2.3141526507
