  17
        -39.50812858
 O         -2.1758104974       -0.3715069255       -1.1342338381
 C         -1.0582729888       -1.0312949072       -0.6126818530
 C         -0.0188392981       -0.0285429786       -0.0748797311
 C          0.1897637801        1.1752290687       -1.0452240991
 O          0.2070131690        0.7741311133       -2.3691219134
 N         -0.4768671208        0.5516740014        1.2351313847
 O         -1.6338541854        0.3624355564        1.5184618125
 O          0.3219290628        1.1874310634        1.8613876213
 N          1.3030704912       -0.7188521703        0.1796015585
 O          1.2704331364       -1.9204718144        0.2135566433
 O          2.2549328877       -0.0142184166        0.3486996029
 H         -2.7334587638       -0.0766164687       -0.4008263294
 H         -0.6041576863       -1.5927687990       -1.4341838933
 H         -1.3298621552       -1.7389442840        0.1782369778
 H          1.1634364116        1.6238266513       -0.8209077117
 H         -0.5975794469        1.9170484582       -0.8540883894
 H         -0.6891217050        0.5330486650       -2.6440086894
