  17
        -39.50763143
 O         -1.4758910740       -2.0033006010       -0.2626112826
 C         -1.3124474368       -0.8169458793       -0.9588118796
 C         -0.2148255672        0.1027726527       -0.3608720354
 C          0.1842342361        1.2643824691       -1.3018925110
 O          1.2725403236        1.9884706003       -0.8323426813
 N         -0.6860870013        0.6253162398        0.9595479261
 O         -1.1707008171       -0.1771071861        1.7160309956
 O         -0.5875921340        1.8103442434        1.1522054443
 N          1.0327993745       -0.7457888713       -0.1367116424
 O          1.4829950152       -0.7607161718        0.9716676468
 O          1.4475907121       -1.2968205445       -1.1110105368
 H         -1.7458750402       -1.8256963025        0.6532668909
 H         -2.2469148113       -0.2380955430       -1.0227197462
 H         -1.0023905979       -1.0991960760       -1.9692218673
 H         -0.6978089009        1.8983460792       -1.4655872801
 H          0.4926835079        0.8300773359       -2.2574918106
 H          1.0058930993        2.5227397932       -0.0693301567
