  17
        -39.50685615
 O         -1.7503774435       -1.7940352758       -0.1503535834
 C         -1.3155758558       -0.7880350116       -0.9956169974
 C         -0.1742812697        0.0693319186       -0.3884991653
 C          0.2644544070        1.2058726466       -1.3487640273
 O          1.3037141484        1.9710827499       -0.8488345122
 N         -0.6152166626        0.6832414615        0.9118439922
 O         -1.8044054758        0.7321081954        1.1041473163
 O          0.2518951237        1.0912876208        1.6282293215
 N          0.9890278145       -0.8316660712       -0.0771999180
 O          0.8730120135       -1.5376524896        0.8818394216
 O          1.9238415501       -0.7800090464       -0.8368083730
 H         -2.2491109053       -1.4145979803        0.5874453462
 H         -2.1275753937       -0.1053005791       -1.2803958883
 H         -0.9351990663       -1.2774946883       -1.8975240594
 H         -0.5840475173        1.8822363452       -1.4910806724
 H          0.5148176385        0.7458990291       -2.3143075004
 H          2.1268750793        1.4618931274       -0.8632221667
