  17
        -39.50932777
 O         -2.2628337207       -0.5362063171       -1.0273814626
 C         -0.9953845119       -1.0370319434       -0.7743429176
 C         -0.0600131605        0.0164204885       -0.1215550033
 C          0.1152348819        1.2785285303       -1.0087891301
 O          0.6421468261        0.9807707032       -2.2557922976
 N         -0.5905907624        0.4487625075        1.2179526622
 O         -1.6765991962        0.0518216172        1.5460650055
 O          0.1234549711        1.1895848833        1.8386139706
 N          1.2677057793       -0.6345681372        0.1538369704
 O          1.2365002941       -1.5630824526        0.9159798968
 O          2.2331422709       -0.2040568298       -0.4181616925
 H         -2.7459588702       -0.4450260773       -0.1925056408
 H         -0.5695376592       -1.2999080687       -1.7479185881
 H         -1.0158495854       -1.9260071579       -0.1287660664
 H          0.7271691791        2.0051253201       -0.4564785050
 H         -0.8798696107        1.6977942898       -1.1884462030
 H          1.5823129739        0.7650525015       -2.1653024058
