  17
        -39.50612020
 O         -1.5701768004       -1.7726946425       -1.1920080198
 C         -1.4339940011       -1.0665265985       -0.0084731189
 C         -0.3070148103        0.0041824368       -0.0672694294
 C         -0.3764449270        0.8624211342       -1.3338544969
 O          0.8759651190        1.4744013839       -1.5041289680
 N         -0.4113038187        0.8344032861        1.1841450918
 O         -0.2152804746        0.2333645090        2.2067013238
 O         -0.7374477584        1.9817800103        1.0711311194
 N          1.0417439777       -0.6813242443       -0.0589314309
 O          1.1095955232       -1.6840795436       -0.7246237238
 O          1.9139085485       -0.1836641223        0.5829117179
 H         -0.7572386842       -2.2800727696       -1.3526923835
 H         -1.2337751928       -1.7230146800        0.8509163569
 H         -2.3879021572       -0.5550583523        0.1561516020
 H         -1.1808741647        1.5973217429       -1.2085480923
 H         -0.6197667744        0.2030903692       -2.1803737878
 H          0.8002039627        2.2333277121       -2.0887806871
