  17
        -39.50610732
 O         -0.9497117831       -1.3510745242       -1.5979143832
 C         -1.4214996191       -0.5315748798       -0.5581186116
 C         -0.1993790426        0.2005556399        0.0130328352
 C          0.2333656155        1.4355577827       -0.8229576669
 O          0.2181489418        1.1921111048       -2.1843981119
 N         -0.4353496589        0.6604963833        1.4159487991
 O         -1.5698332704        0.6830687316        1.8085875754
 O          0.5458641480        1.0224487587        2.0103466442
 N          0.9269970660       -0.8175584177        0.0439609312
 O          0.8271441986       -1.6731316887        0.8744252394
 O          1.7981961443       -0.6831457079       -0.7674438322
 H         -1.6918199252       -1.7151013389       -2.0889900980
 H         -1.8815391035       -1.1286801768        0.2428686479
 H         -2.1482106117        0.2064158798       -0.9176933725
 H          1.2232331283        1.7541694962       -0.4639767412
 H         -0.4837470660        2.2437963919       -0.6447930381
 H          0.8771617389        0.5129940904       -2.3924335197
