  17
        -39.50709999
 O         -1.7242987891       -1.5936353171       -0.0835711140
 C         -1.1926807305       -0.6021498602       -0.8954402600
 C         -0.0568294960        0.2006769879       -0.2107680407
 C          0.3989905748        1.4313676611       -1.0318441845
 O          0.5153143205        1.1559568647       -2.3929829302
 N         -0.5764428350        0.6488797246        1.1357629606
 O         -0.2769812839       -0.0288411831        2.0764953898
 O         -1.2729593480        1.6256547993        1.1306456626
 N          1.1309549479       -0.6948223071        0.0532708227
 O          1.0064909458       -1.8610438570       -0.2126036065
 O          2.1022043537       -0.1573593059        0.5047143650
 H         -1.0790545162       -2.3090605766        0.0202835089
 H         -2.0128297212        0.0904839529       -1.1123063271
 H         -0.7959967338       -1.0068920513       -1.8367568430
 H          1.3970694782        1.7215945471       -0.6827810637
 H         -0.3000034467        2.2513008506       -0.8280611774
 H         -0.3319220347        1.2579409580       -2.8397130908
