  17
        -39.50902329
 O         -1.1992038217       -1.0599128464       -1.7993625536
 C         -1.4404201521       -0.4612202247       -0.5735964078
 C         -0.1681302391        0.2122963311        0.0135464464
 C          0.3417155217        1.4008024587       -0.8250976604
 O          0.4956091971        1.0722734587       -2.1752270849
 N         -0.4519654120        0.6470424789        1.4260917684
 O         -0.0605110294        1.7420956625        1.7364553233
 O         -1.0394511590       -0.1327103653        2.1210510993
 N          0.8952120978       -0.8703549435        0.0948011742
 O          1.8710615919       -0.6991251634       -0.5895089353
 O          0.6694832472       -1.7923716579        0.8185644861
 H         -0.9441876971       -0.3804074203       -2.4446665424
 H         -1.7569798913       -1.2533147354        0.1137386499
 H         -2.2288068096        0.3029962024       -0.6330375643
 H          1.2751125485        1.7783417985       -0.3907790564
 H         -0.4034075020        2.2005428596       -0.7793207069
 H          1.2962533164        0.5348455520       -2.2724962131
