  17
        -39.50794568
 O         -1.7694900348       -1.5157436345       -0.4078218454
 C         -1.1125547902       -0.4993025306       -1.0843355940
 C          0.0925324115        0.0780830607       -0.2970272969
 C          0.8984782471        1.0868610407       -1.1190975447
 O         -0.0034426240        2.0672860881       -1.5674098362
 N         -0.3829287948        0.7614892958        0.9663983569
 O          0.4630569966        1.3247281253        1.6022009218
 O         -1.5519342561        0.6846684731        1.2274671251
 N          0.9641867879       -1.0741078934        0.1263551711
 O          1.7929144613       -1.4327052154       -0.6641768443
 O          0.7282542794       -1.5493641044        1.2012087963
 H         -2.2528224411       -1.1445908546        0.3452035839
 H         -1.7711820476        0.3428762365       -1.3316523781
 H         -0.7288163075       -0.9341579898       -2.0119705343
 H          1.3768081666        0.5599693542       -1.9552503889
 H          1.6777634800        1.5223044762       -0.4766525488
 H          0.4763171014        2.7506973107       -2.0461126441
