  17
        -39.50596935
 O         -2.3810707978       -0.3482456249       -0.8797659337
 C         -1.1380950471       -0.9629283324       -0.7189136311
 C         -0.0974827773        0.0136659740       -0.1408764605
 C          0.2203362411        1.1735462345       -1.0911851300
 O          0.8817461178        0.6070916785       -2.1937145512
 N         -0.5566080300        0.5578525721        1.1842011443
 O          0.0407693167        1.5005021823        1.6218840674
 O         -1.4900799759       -0.0049773589        1.6994265646
 N          1.2230014153       -0.6996375215        0.1326076507
 O          1.2338931030       -1.8864151417       -0.0215094685
 O          2.1207957346       -0.0017053397        0.5021966209
 H         -2.8276058263       -0.3085678802       -0.0226278112
 H         -0.7927547522       -1.2567926783       -1.7138131854
 H         -1.1969083468       -1.8547595013       -0.0853662394
 H          0.8570510680        1.8987521066       -0.5655218523
 H         -0.7247374539        1.6494539423       -1.3875175237
 H          1.0769407108        1.2926690816       -2.8397203534
