  10
         -8.35109888
 C         -1.9651143137        0.0000044276       -0.0000831379
 H         -1.2546660796        0.2747802456       -0.7684843724
 H         -2.0255972772        0.7918823478        0.7351248796
 H         -1.6412717508       -0.9141766575        0.4801005590
 H         -2.9392985504       -0.1525244979       -0.4460204424
 C          1.9651101580        0.0000002980        0.0000794183
 H          1.6253322966       -0.8982228722       -0.4988029629
 H          1.2803094752        0.2491323194        0.7998770963
 H          2.0019872213        0.8155137171       -0.7104559292
 H          2.9532541878       -0.1664409170        0.4087054973
