  38
        -64.18442285
 C         -3.7707639391       -1.4191496263       -0.5106314569
 C         -2.7134334172       -0.3323199916       -0.2845925561
 C         -2.9779187210        0.8548260486       -1.2351554036
 O         -2.1841293659        1.9845703588       -0.9684810501
 C         -2.7606425802        0.1296741454        1.1859765100
 O         -1.7781555738        1.0881352188        1.5109569217
 C         -1.3586447818       -0.9602685758       -0.6054009178
 O         -0.9250835986       -1.7574833959        0.3519073158
 O         -0.7538651149       -0.7712227514       -1.6345382763
 H         -4.7596809168       -1.0335798137       -0.2742513059
 H         -3.5673229917       -2.2773804068        0.1249158556
 H         -3.7613555919       -1.7414175559       -1.5493123209
 H         -4.0132812730        1.1851957557       -1.1120161148
 H         -2.8368964406        0.5169586033       -2.2687707036
 H         -1.2550264796        1.7878332248       -1.1793775558
 H         -2.5969880547       -0.7216898762        1.8503648428
 H         -3.7572114024        0.5465587993        1.3836303189
 H         -1.8377920097        1.7806963797        0.8177730446
 H         -0.0072832596       -2.0760235928        0.1342364997
 C          2.8546270955        0.5913445299       -1.5857673794
 C          2.5518866722        0.1840252087       -0.1435740895
 C          2.6176685498       -1.3452046581        0.0277706310
 O          1.5589246384       -2.0494733388       -0.5822608815
 C          3.5825099195        0.8315225585        0.8164639274
 O          3.4903370184        0.3829784235        2.1357562039
 C          1.1745388408        0.7157821434        0.2407435421
 O          0.7647180286        0.3093013794        1.4302253142
 O          0.5309036893        1.4605390770       -0.4587842828
 H          2.0669472070        0.2479137439       -2.2537782374
 H          3.8070992027        0.1768264352       -1.9063804379
 H          2.8969061703        1.6745354258       -1.6648729117
 H          2.5773506078       -1.6037752314        1.0883680709
 H          3.5769115931       -1.6939710008       -0.3777282839
 H          1.3831365828       -1.6801460231       -1.4607129269
 H          3.4699350186        1.9253755077        0.7618604215
 H          4.5903439500        0.5722877044        0.4815521225
 H          2.5721070724        0.4665320486        2.4302913626
 H         -0.1820919762        0.6061992514        1.5984892232
