  38
        -64.18431007
 C         -3.5017981995       -0.9724683995        1.0382217209
 C         -2.6282209474       -0.2530449495        0.0075917143
 C         -3.2925245261       -0.3223192111       -1.3858233170
 O         -2.6244059023        0.4193823513       -2.3608200861
 C         -2.4415975614        1.2364478491        0.3753782611
 O         -1.7728616595        1.4601189402        1.5969975884
 C         -1.2436506666       -0.8922968586       -0.0635347593
 O         -0.7316011223       -1.1571504975        1.1184045329
 O         -0.6626796037       -1.1064440665       -1.1045295301
 H         -2.9885695220       -1.0686255099        1.9925796343
 H         -3.7387086527       -1.9744139946        0.6873724695
 H         -4.4342157025       -0.4299528082        1.1822503746
 H         -4.3023678157        0.0926895021       -1.3243278882
 H         -3.3678339167       -1.3796276822       -1.6817072775
 H         -1.7186035505        0.0777645390       -2.4106921066
 H         -3.4328470672        1.7079770665        0.4002185871
 H         -1.8405195783        1.7262030415       -0.3942712324
 H         -2.1800017958        0.9123215505        2.2785271989
 H          0.2121257221       -1.4942446859        1.0405843209
 C          3.7179749904        1.4254903683        0.7001985893
 C          2.6966274595        0.4055975154        0.1913955881
 C          2.9742399645        0.0679817112       -1.2886134775
 O          2.1543251446       -0.9583095041       -1.7921237998
 C          2.7674050631       -0.8728887420        1.0519350454
 O          1.8065312371       -1.8420884618        0.6966209505
 C          1.3018864704        1.0192321356        0.3102275978
 O          0.9272576504        1.2030550336        1.5623220159
 O          0.6145280895        1.2963951573       -0.6418533345
 H          3.6920189151        2.3221478272        0.0853642733
 H          4.7198485569        1.0044489848        0.6594071156
 H          3.4920733211        1.6988537177        1.7275783270
 H          4.0010857596       -0.2949764848       -1.3883066296
 H          2.8638980321        0.9794425476       -1.8883052804
 H          1.2353253913       -0.6440251866       -1.8321227114
 H          2.5890334681       -0.6259480929        2.1012482014
 H          3.7740441958       -1.3012615804        0.9552697908
 H          1.8619327826       -1.9383948749       -0.2793984319
 H         -0.0265993967        1.4731677773        1.6060656344
