  30
        -62.81483390
 C         -2.2557913500       -1.6392058380        0.8551316501
 C         -2.6276143091       -0.3298318361        0.1836431309
 C         -4.1178945029       -0.1691610620       -0.0617793053
 N         -2.1040807051        0.8226802574        0.9972405282
 O         -0.9226423880        0.8120746759        1.2395375774
 O         -2.8884651823        1.6564836420        1.3551494975
 N         -1.9617178039       -0.2471845934       -1.1832224364
 O         -1.4382486077        0.7974824931       -1.4636596537
 O         -2.0946884935       -1.2032463799       -1.8868806484
 H         -2.9179603771       -1.8362576095        1.6945243647
 H         -1.2293225671       -1.6181167543        1.2158623494
 H         -2.3491281182       -2.4471709511        0.1323508884
 H         -4.3320693704        0.7806804776       -0.5489947688
 H         -4.6590899861       -0.1956760974        0.8808639307
 H         -4.4680381712       -0.9818966643       -0.6938799872
 C          2.9585870417        0.7752317036        1.5389401001
 C          2.2380708916        0.4696316473        0.2386700751
 C          1.5509349937        1.6655846927       -0.3874297897
 N          3.2738535655       -0.0895193043       -0.7171576818
 O          3.4105945016       -1.2841187777       -0.7109388268
 O          3.9063880390        0.7039023203       -1.3548994714
 N          1.2379947723       -0.6342820025        0.4476588849
 O          1.1819286973       -1.1542655310        1.5269266925
 O          0.5508924379       -0.9131813505       -0.5017406328
 H          3.7028972330        1.5501207345        1.3722012841
 H          3.4470250906       -0.1156814649        1.9299167841
 H          2.2415706605        1.1247893520        2.2778603736
 H          2.2988265448        2.3561950831       -0.7688408775
 H          0.9394573196        2.1705867731        0.3551981428
 H          0.9070112730        1.3548398759       -1.2088623940
