  30
        -62.81554901
 C         -3.1344129328       -1.6377485176        0.9434467536
 C         -2.7358237177       -0.2151698796        0.6365465937
 C         -3.8267125516        0.8243595886        0.8604378380
 N         -1.5561765618        0.1896250443        1.4846168843
 O         -1.0941541941        1.2850080879        1.2879292737
 O         -1.1816577374       -0.5886592822        2.3169115463
 N         -2.3029900979       -0.0931417602       -0.8180547989
 O         -2.4281635904       -1.0653568476       -1.5032331250
 O         -1.9163465790        0.9888588949       -1.1674336670
 H         -3.9721828004       -1.9337318434        0.3182095639
 H         -3.4181341310       -1.7303022571        1.9883575865
 H         -2.3032265630       -2.3118802402        0.7489271557
 H         -4.1440191182        0.8195358930        1.9009674130
 H         -4.6888962055        0.6033849703        0.2352840895
 H         -3.4481899447        1.8140251342        0.6075586293
 C          1.2463961585        1.3442944057       -1.3972777276
 C          2.0171565944        0.5602752004       -0.3529393374
 C          2.1882896856        1.2855308964        0.9688799402
 N          1.3354116704       -0.7449959735       -0.0516464831
 O          2.0297621188       -1.6331384580        0.3555380567
 O          0.1369460414       -0.7832760761       -0.1815343817
 N          3.3651050313        0.2013878765       -0.9476298678
 O          4.3377023806        0.7108237399       -0.4668572690
 O          3.3294901855       -0.5419649724       -1.8919855769
 H          1.1847115295        0.7806923907       -2.3269359568
 H          1.7433082723        2.2920123566       -1.5891171237
 H          0.2361424198        1.5517158849       -1.0488682692
 H          1.2138839301        1.5809940333        1.3533938007
 H          2.7909698869        2.1781634703        0.8219935595
 H          2.6894603335        0.6484429164        1.6957975959
