  30
        -62.81600994
 C         -4.2005849836       -0.5411460503       -0.0938002340
 C         -2.7273985164       -0.4909815425        0.2727115712
 C         -2.3516849788       -1.3923968829        1.4346990970
 N         -1.9576306507       -0.9133481684       -0.9630982396
 O         -1.9493469089       -2.0825537084       -1.2081143463
 O         -1.4911622751       -0.0301748252       -1.6349466516
 N         -2.3148904323        0.9208053827        0.5936875776
 O         -3.1762203813        1.7540411597        0.6461129045
 O         -1.1401790847        1.1010146868        0.7927990955
 H         -4.4690584954       -1.5564567153       -0.3760820149
 H         -4.4180458469        0.1301127746       -0.9230110124
 H         -4.8082676722       -0.2382841818        0.7553065708
 H         -2.4827065867       -2.4304475558        1.1381762788
 H         -2.9823099227       -1.1848981280        2.2955558633
 H         -1.3088037550       -1.2455903093        1.7074205023
 C          1.7220873773        0.2360038997       -1.7561447860
 C          2.1131274524        0.5720710937       -0.3304213429
 C          1.8439956844        2.0057681721        0.0791230149
 N          1.3977236737       -0.3282216081        0.6403439893
 O          1.7513364906       -0.2543731290        1.7862786932
 O          0.5192480633       -1.0300885364        0.2163841883
 N          3.5859232336        0.2503608516       -0.1821616137
 O          3.8567924703       -0.9196145222       -0.1063885957
 O          4.3570087029        1.1677922585       -0.1997335487
 H          0.6543196802        0.3927853955       -1.8964435064
 H          1.9492796636       -0.8056765939       -1.9775081727
 H          2.2620295703        0.8753513969       -2.4501891070
 H          0.7815171011        2.2179233568       -0.0084910445
 H          2.4019692577        2.6857026563       -0.5587177304
 H          2.1478057329        2.1646808032        1.1121529946
