  30
        -62.81386153
 C         -2.1714851280       -1.5738591361        0.9163994445
 C         -2.8487252609       -0.3049274713        0.4250278493
 C         -4.3450382977       -0.4139096327        0.2568311410
 N         -2.5040953615        0.8200515381        1.3836409282
 O         -3.4169616503        1.4658668382        1.8185719698
 O         -1.3364629847        0.9806975103        1.6212085186
 N         -2.2003094542        0.0987656233       -0.8872707796
 O         -1.0096810619        0.2702462163       -0.8634193764
 O         -2.9207326274        0.2278754599       -1.8362443303
 H         -2.3864967577       -2.3961299122        0.2380773099
 H         -2.5419675913       -1.8361535292        1.9044708376
 H         -1.0910987529       -1.4407840783        0.9681309576
 H         -4.8060270168       -0.6709864741        1.2068696206
 H         -4.5801171243       -1.1861339178       -0.4708058457
 H         -4.7709637746        0.5253216423       -0.0891278344
 C          1.9836245888        0.7082988117        1.2641544170
 C          2.2683054343        0.3295263195       -0.1766922048
 C          1.9198407570        1.3998928270       -1.1888017172
 N          3.7440975277       -0.0010013055       -0.2580870991
 O          4.4892154616        0.8867121521       -0.5657517932
 O          4.0498592357       -1.1241504621        0.0471681500
 N          1.5490794661       -0.9471960903       -0.5389790203
 O          0.9104973114       -1.4933135110        0.3194433746
 O          1.6796412043       -1.3213623797       -1.6724887909
 H          2.2687264853       -0.0992964279        1.9359161282
 H          0.9217726604        0.9046460416        1.3919338908
 H          2.5406881103        1.6045935402        1.5254886762
 H          2.5668785424        2.2620345175       -1.0504614718
 H          0.8841151888        1.6995658484       -1.0588475520
 H          2.0507226657        1.0187286726       -2.1998463973
