  30
        -62.81413873
 C         -2.9687092948       -1.5529522092       -0.7521828328
 C         -2.4624357231       -0.5098310588        0.2268343259
 C         -1.8578601140       -1.0885145709        1.4903460493
 N         -1.4712155747        0.3998907517       -0.4514179971
 O         -1.3452370177        0.3103822527       -1.6397812759
 O         -0.8660903376        1.1596324868        0.2650192823
 N         -3.6431576634        0.3702168002        0.5897401480
 O         -4.4059162966       -0.0680649225        1.4037704487
 O         -3.7380097383        1.4121220937       -0.0024829666
 H         -3.4030160871       -1.0825724506       -1.6325246794
 H         -3.7200739531       -2.1719407309       -0.2678497616
 H         -2.1422812354       -2.1829678920       -1.0730327211
 H         -1.1304426201       -1.8555160556        1.2372534946
 H         -2.6444757642       -1.5307204473        2.0969923508
 H         -1.3599110034       -0.3128051988        2.0703072194
 C          1.8542727694        1.2024334302       -1.3819549777
 C          2.5031407332        0.5171851940       -0.1961957085
 C          3.1593499904        1.4667180951        0.7890048058
 N          1.4894835233       -0.3441608192        0.5091573129
 O          0.8399457489       -1.0815934568       -0.1926691728
 O          1.3856141707       -0.2392405917        1.6979568996
 N          3.5819316252       -0.4326067667       -0.6811375319
 O          4.2703004902       -0.0497221961       -1.5840115115
 O          3.6857247453       -1.4697924722       -0.0817785698
 H          1.1862895507        1.9883509527       -1.0382576033
 H          1.2799870099        0.4898559567       -1.9726177984
 H          2.6238609829        1.6393264429       -2.0135539869
 H          2.4119285312        2.1404615513        1.2014919156
 H          3.9211168234        2.0522698242        0.2798841577
 H          3.6166476462        0.9183765495        1.6107997808
