  30
        -62.81526999
 C         -2.4299575546       -0.8633435148       -1.6686983590
 C         -2.4977002152       -0.4721805281       -0.2053539168
 C         -2.3113459584       -1.6102070070        0.7683817062
 N         -1.4880477280        0.6129101778        0.0575306553
 O         -1.2068802928        1.3439186929       -0.8528668829
 O         -1.0456066934        0.6963859293        1.1767699440
 N         -3.8459435317        0.2107705150        0.0334277874
 O         -4.5452336530       -0.2480902273        0.8907769166
 O         -4.0853358909        1.1533916778       -0.6706115388
 H         -3.1538773151       -1.6460890572       -1.8799731698
 H         -1.4324990847       -1.2322621402       -1.8947880976
 H         -2.6390343396       -0.0010737070       -2.2988355766
 H         -2.3336061152       -1.2529671672        1.7953445955
 H         -1.3538747429       -2.0896866378        0.5824724578
 H         -3.1039716971       -2.3420216394        0.6404263702
 C          2.2173738868        1.2318137022        1.3299663196
 C          2.4028512845        0.4388843272        0.0507411065
 C          2.0279264160        1.1777884538       -1.2196283449
 N          3.8486402810        0.0008946532       -0.0956517495
 O          4.0401500861       -0.8773107430       -0.8952985905
 O          4.6718970830        0.5831659648        0.5499335736
 N          1.6063240363       -0.8279672063        0.1899654714
 O          0.6151539832       -0.9471267930       -0.4855779357
 O          2.0001289497       -1.6161701474        1.0052587815
 H          2.5442006661        0.6457842444        2.1872783103
 H          1.1685713744        1.4902742265        1.4625054929
 H          2.8054734536        2.1446000198        1.2888471043
 H          0.9796113616        1.4696303197       -1.2004526561
 H          2.1940220672        0.5438290064       -2.0892598161
 H          2.6325358641        2.0764479505       -1.3153434809
