  30
        -85.42732272
 O         -2.9429593051        0.3730529993       -2.0773619981
 C         -2.3390812514        0.8879054861       -0.9464762958
 C         -2.3695308516       -0.1227536410        0.2375437863
 N         -1.7015198199       -1.4105272425       -0.1871319694
 O         -2.4205066985       -2.3300390397       -0.4314925023
 O         -0.5053645137       -1.3604864751       -0.2651092456
 N         -1.6789477333        0.4652392100        1.4809510656
 O         -0.8637268573       -0.2165817438        2.0173698288
 O         -2.0841897978        1.5427003033        1.7904214854
 N         -3.8089184752       -0.4399854503        0.6688339598
 O         -3.9010674988       -1.1174876298        1.6475368540
 O         -4.6802782797        0.0313386170        0.0005345790
 H         -3.9075002043        0.4024572984       -1.9940306553
 H         -2.7959055576        1.8213404070       -0.5931111820
 H         -1.2898459239        1.0753424269       -1.2007709140
 O          2.9409449435       -0.3681708027        2.0790872816
 C          2.3393510335       -0.8860188822        0.9483430449
 C          2.3697424195        0.1226972674       -0.2373462959
 N          1.7009370584        1.4107684720        0.1850746512
 O          0.5049341597        1.3596142526        0.2646362419
 O          2.4191686560        2.3317780912        0.4260727802
 N          3.8092036758        0.4400279249       -0.6686374652
 O          3.9013441667        1.1131871543       -1.6503119973
 O          4.6805107128       -0.0269496469        0.0027564753
 N          1.6799466140       -0.4674789207       -1.4800516987
 O          0.8635258541        0.2125133539       -2.0169831026
 O          2.0866509449       -1.5447213361       -1.7883583566
 H          3.9056436272       -0.3957227077        1.9968607402
 H          1.2900860740       -1.0746924328        1.2016503056
 H          2.7981281297       -1.8193544292        0.5972391439
