  30
        -85.42635856
 O         -2.3879397266        1.4929294887        1.1756011373
 C         -2.1282157941        0.1743861142        1.5026070154
 C         -2.1620918058       -0.7604934498        0.2549041628
 N         -1.7707705508       -0.0090212552       -0.9893755224
 O         -2.6462770262        0.5291727634       -1.5890835361
 O         -0.5894053291        0.0311285230       -1.2285341501
 N         -1.2759076235       -1.9854325089        0.4617003393
 O         -1.2733159104       -2.4253580991        1.5694152801
 O         -0.7224523027       -2.4047779823       -0.5129223386
 N         -3.5891164510       -1.3525537726        0.0124073793
 O         -3.7288489541       -1.8427866272       -1.0659332230
 O         -4.3460007965       -1.3024356827        0.9254321526
 H         -1.5693689919        1.9813291337        1.0035839269
 H         -2.9294164487       -0.1659897360        2.1713165434
 H         -1.1636620193        0.0341013159        2.0012107046
 O          1.9829705709       -1.4761092394       -1.2442474140
 C          2.4064598248       -0.1914458166       -1.4941826554
 C          2.2577002911        0.7592479955       -0.2584552268
 N          1.9942491397       -0.0449933158        0.9957593450
 O          0.8926357186       -0.5106089454        1.0819326888
 O          2.8999772631       -0.1432103350        1.7645244728
 N          3.5548699082        1.5871274148       -0.0060125981
 O          4.5587982016        1.1727174894       -0.4837898741
 O          3.3763543170        2.5632577476        0.6577817493
 N          1.1625749096        1.7915839756       -0.4576617448
 O          0.3704604759        1.9344557027        0.4337605696
 O          1.2193223188        2.3879752525       -1.4883284704
 H          1.0245013234       -1.5793079731       -1.3496703590
 H          1.8957280078        0.2839043629       -2.3409521987
 H          3.4822329103       -0.2520154178       -1.7075681414
