  30
        -85.42639556
 O         -2.2572393369        1.1149584130       -2.5139486478
 C         -1.8865531308       -0.0481482334       -1.8633040566
 C         -2.1977528442        0.0132373571       -0.3423889131
 N         -1.8140645083       -1.3092606991        0.3640004844
 O         -2.0973818979       -2.2902930412       -0.2508661277
 O         -1.3449307754       -1.2020271441        1.4497502014
 N         -1.4539113664        1.1722083944        0.2771164455
 O         -0.2703934212        1.0044309493        0.4036179896
 O         -2.0874821711        2.1474925903        0.5306055243
 N         -3.6971531367        0.1965272956       -0.0824521478
 O         -4.3970571034        0.2597696083       -1.0513015786
 O         -4.0124095375        0.2325999326        1.0680638700
 H         -3.2154670588        1.1361950950       -2.6521234599
 H         -0.8019885545       -0.1500217865       -1.9827882792
 H         -2.3754147364       -0.9453220415       -2.2636774673
 O          4.4644429995       -0.9386881514        1.1101120963
 C          4.0110790420       -0.0843405517        0.1215089055
 C          2.4589259435       -0.0515141041        0.0516380612
 N          1.9569963574        0.2569191816        1.5155859528
 O          1.4712550524       -0.6732535594        2.0687102435
 O          2.1805354074        1.3532977527        1.8943362299
 N          2.0081779399        1.0586629874       -0.8806618139
 O          1.3332093626        0.7264599598       -1.8145368703
 O          2.4207856525        2.1433874491       -0.6138537731
 N          1.8819696089       -1.3705023523       -0.3768982230
 O          0.6904665605       -1.4169044967       -0.5040078681
 O          2.6694466674       -2.2590263539       -0.5525321325
 H          4.3887626595       -1.8604732173        0.8226066957
 H          4.4004769341       -0.3448599664       -0.8722748937
 H          4.3423446769        0.9263886202        0.3881982923
