  30
        -85.42644518
 O         -1.9938140043        0.7948328052       -1.9403354978
 C         -2.4045527196        1.0878212202       -0.6515172921
 C         -2.3461765841       -0.1627166715        0.2777849274
 N         -1.6699616370       -1.3135720112       -0.4423901654
 O         -2.3772033942       -2.1545828802       -0.8959321727
 O         -0.4730796947       -1.2388680273       -0.5048681640
 N         -1.6353652546        0.1247612525        1.5878340662
 O         -0.8675693467       -0.7102726032        1.9796782250
 O         -1.9486061159        1.1452387484        2.1191925910
 N         -3.7664117430       -0.6632149821        0.7038531985
 O         -3.7339110225       -1.6031482506        1.4382225914
 O         -4.6996035978       -0.0618380549        0.2858925891
 H         -1.0427413437        0.9423668648       -2.0643138233
 H         -3.4585710939        1.3907914849       -0.7105229944
 H         -1.8284667980        1.8930473197       -0.1834566352
 O          1.9970386608       -0.7935910975        1.9411580703
 C          2.4028838026       -1.0881065235        0.6511086762
 C          2.3456330552        0.1626277559       -0.2779804581
 N          1.6677666105        1.3130195549        0.4412330630
 O          0.4705877687        1.2387945836        0.4999548241
 O          2.3738086437        2.1531134344        0.8982269479
 N          3.7662846964        0.6638535319       -0.7015840321
 O          3.7346858789        1.6069058783       -1.4320190632
 O          4.6989204773        0.0597799792       -0.2862396882
 N          1.6370684584       -0.1251662075       -1.5892507337
 O          0.8713146344        0.7106902032       -1.9832531485
 O          1.9499536045       -1.1465455520       -2.1190497356
 H          1.0461106020       -0.9393957889        2.0681536816
 H          1.8225580774       -1.8913452255        0.1849156842
 H          3.4560343019       -1.3946564589        0.7066819403
