  30
        -85.42680672
 O         -2.4641389890       -0.7337205831        2.3880875939
 C         -2.0073804523        0.3093160086        1.6073601836
 C         -2.3027583504        0.0718970213        0.0966049016
 N         -3.8176266570       -0.0417100948       -0.1624862935
 O         -4.5269245499        0.0779534679        0.7904256465
 O         -4.1165843076       -0.2180706319       -1.3041201952
 N         -1.8224311152        1.2494394390       -0.7582953236
 O         -2.1055254291        2.3225892602       -0.3268135931
 O         -1.2728544306        0.9717303804       -1.7816200726
 N         -1.6558344436       -1.2195646152       -0.3477898777
 O         -2.3562412184       -2.1835534521       -0.3631137935
 O         -0.4840088456       -1.1509913567       -0.6008897411
 H         -3.4208336281       -0.6707004534        2.5232650138
 H         -0.9199704917        0.3544575096        1.7358984691
 H         -2.4408956495        1.2810361245        1.8764375662
 O          1.5663257101        0.5612919854       -2.3404910132
 C          2.2867902218       -0.3965650216       -1.6565414289
 C          2.4400451405       -0.0771689395       -0.1358333823
 N          1.7836018372       -1.1437494477        0.7457164714
 O          1.0961136061       -0.7563904258        1.6422958152
 O          2.0643880817       -2.2651393347        0.4504579440
 N          3.9302246330       -0.0497708529        0.3160618936
 O          4.0690840994       -0.0550171099        1.5021078292
 O          4.7558412459       -0.0333792065       -0.5374648686
 N          1.8559324719        1.2794434047        0.1821104529
 O          0.6561707090        1.3285641807        0.1860639980
 O          2.6290843391        2.1639515187        0.3806895215
 H          0.6090095756        0.4278708306       -2.2665050560
 H          3.2988906004       -0.3868077017       -2.0825938078
 H          1.8688533156       -1.4062316780       -1.7489763400
