  30
        -85.42647819
 O         -3.0241160173       -2.3592829576       -0.2022452488
 C         -1.9848375751       -1.5989312584        0.3097218786
 C         -2.1921636305       -0.0889802732        0.0314878621
 N         -3.6296254448        0.2880573674        0.4413955926
 O         -4.4134354646        0.3894072283       -0.4499754359
 O         -3.7971076347        0.3934914021        1.6159721515
 N         -1.2361824279        0.7809520219        0.7915930086
 O         -0.1990889912        0.2598604481        1.1242038022
 O         -1.5691131090        1.9098170918        0.9744900285
 N         -2.0564095800        0.2314412099       -1.4819961129
 O         -2.0266594329        1.3861311821       -1.7562592535
 O         -2.0307500808       -0.7222742038       -2.1966117250
 H         -2.9286671054       -2.4502888820       -1.1615147161
 H         -1.0046536175       -1.8966080218       -0.0836026491
 H         -1.9879370667       -1.7434662565        1.3959142912
 O          4.7056352598        0.0355919134        0.9389478150
 C          4.0358603894       -0.2543564601       -0.2281972337
 C          2.4853946855       -0.1234029993       -0.0821710150
 N          2.2048472466        1.1716335629        0.7565522406
 O          2.4594634262        1.0918576997        1.9080498915
 O          1.8253713235        2.0934922137        0.1071031458
 N          1.7839783585       -0.0047232412       -1.4139989172
 O          0.5899030763        0.1131364432       -1.3592381303
 O          2.4711117446       -0.0511768232       -2.3887031345
 N          1.9701506744       -1.3256621959        0.6715065157
 O          1.1446397225       -2.0009560157        0.1240528843
 O          2.4964540794       -1.5181964992        1.7289087589
 H          4.4578515965       -0.5721157797        1.6547054980
 H          4.2537256067       -1.2647676928       -0.6083264159
 H          4.3703610809        0.4717146495       -0.9775343492
