  30
        -85.42689395
 O         -2.9433418332       -1.0858893074        1.8821989541
 C         -2.1974327388       -0.0201067441        1.4264130329
 C         -2.3702773877        0.2072280768       -0.1086900216
 N         -3.8756145456        0.3766286652       -0.4251210226
 O         -4.2782305474       -0.2591486002       -1.3510923393
 O         -4.4554950796        1.1314960753        0.2862250726
 N         -1.6371093416        1.4504747789       -0.5399572975
 O         -2.2799151796        2.3401737759       -1.0062132365
 O         -0.4470119395        1.4149231702       -0.3627412517
 N         -1.8300758768       -0.9761707387       -0.9169638328
 O         -1.1482124517       -0.6963976462       -1.8570695999
 O         -2.1562657464       -2.0547360744       -0.5268292002
 H         -2.5812736211       -1.9272908024        1.5643979775
 H         -1.1239034066       -0.1157206864        1.6369795806
 H         -2.5877996557        0.8701743939        1.9336810648
 O          2.7702882648       -0.7040510449       -2.1690562183
 C          2.2829479306        0.3226782392       -1.3849358424
 C          2.3886746717       -0.0085536190        0.1330837956
 N          3.8542230484       -0.1609600351        0.5733514528
 O          4.6741965289       -0.1271325123       -0.2945499680
 O          4.0132011443       -0.2814848661        1.7499863744
 N          1.8069277411        1.1266932877        0.9867855105
 O          2.2372543612        2.2049693661        0.7167073697
 O          1.0333657310        0.8183180025        1.8399083868
 N          1.6684736057       -1.3093167105        0.4103267682
 O          2.3505448309       -2.2675321139        0.6050607683
 O          0.4712166561       -1.2442784199        0.3746390490
 H          3.7387529449       -0.6985714884       -2.1796086136
 H          1.2208004059        0.4370300463       -1.6289110242
 H          2.7927345860        1.2806756086       -1.5493040883
