  30
        -85.42754467
 O         -3.3745157957       -0.5958243679        1.9036298821
 C         -2.2974445357        0.1233528728        1.4105604739
 C         -2.3345925009        0.2194698419       -0.1346854264
 N         -3.7375811757        0.6882868124       -0.5674825651
 O         -4.4912292040       -0.1715781200       -0.8997552264
 O         -3.9178312194        1.8627553877       -0.4748112327
 N         -1.3243937728        1.1798638161       -0.6841258801
 O         -1.4763073154        1.5168321821       -1.8189066165
 O         -0.4332193330        1.5074717650        0.0598018304
 N         -2.1031242107       -1.1679834555       -0.7932434370
 O         -2.0341630755       -1.1626124211       -1.9781560013
 O         -2.0527506866       -2.0835147603       -0.0312088923
 H         -3.2221718743       -1.5448202737        1.7886247591
 H         -1.3296961289       -0.3002069129        1.7087740696
 H         -2.3767263234        1.1397118766        1.8123068005
 O          3.2172115168        0.8947262095       -1.8519753753
 C          2.6439313717        1.2779809558       -0.6551514412
 C          2.4243328827        0.0651897438        0.2954938506
 N          3.7729335177       -0.5050501321        0.7792913700
 O          4.7472399768       -0.0568677888        0.2542609586
 O          3.6925055699       -1.3290982841        1.6373663197
 N          1.6447812144        0.4813851326        1.5429877078
 O          0.8013916175       -0.2730605682        1.9237712850
 O          1.9994418395        1.5122110652        2.0274217477
 N          1.7012705876       -1.0389981315       -0.4524905011
 O          2.3783080894       -1.9336748384       -0.8510253394
 O          0.5223327059       -0.8735813656       -0.5971351231
 H          4.1675268715        0.7432210426       -1.7446823342
 H          1.6620791384        1.7070270002       -0.8828876453
 H          3.2336144431        2.0245366812       -0.1079697344
