  30
        -85.42616294
 O         -3.0065871864       -2.3227874953        0.0001756639
 C         -2.0038340364       -1.4649855948        0.4240436518
 C         -2.3136946003        0.0002863028        0.0246841218
 N         -1.4678600312        1.0079938422        0.7328424421
 O         -1.8999819878        2.1188284355        0.8002593253
 O         -0.3997137386        0.6189425993        1.1427120074
 N         -2.1485360962        0.2071871436       -1.5090983856
 O         -2.1290509210        1.3386599205       -1.8699673462
 O         -2.0941788006       -0.7973836942       -2.1451565987
 N         -3.7945442096        0.2903184657        0.3555212363
 O         -4.0142050263        0.4740837239        1.5109886827
 O         -4.5461986517        0.2626254894       -0.5675434936
 H         -2.9088243339       -2.5097167100       -0.9446197056
 H         -1.0182060102       -1.7381553690        0.0258406053
 H         -1.9760924307       -1.5190068351        1.5181336664
 O          3.8759789043        0.7312662391        1.9900469128
 C          2.8947927243        1.1878802368        1.1321023076
 C          2.4098939135        0.0694233882        0.1610176283
 N          1.6577234790       -1.0190510094        0.8944905143
 O          1.1069194872       -1.8319494714        0.2092623061
 O          1.7130363381       -0.9814537735        2.0893890144
 N          1.6101311874        0.6722195828       -0.9683106668
 O          2.1579745806        1.5535021551       -1.5561905681
 O          0.5031044633        0.2422410388       -1.1593566050
 N          3.6893028136       -0.5947922329       -0.4512973465
 O          4.2643164902        0.0533707366       -1.2591548679
 O          3.9400568343       -1.6715091505       -0.0101780217
 H          3.4831956670        0.2044663521        2.7020436916
 H          3.3394603677        1.9805235412        0.5188195230
 H          2.0126980162        1.5756139063        1.6583593095
