  30
        -85.42613014
 O         -2.9471628378       -1.8696402955        1.1334951208
 C         -1.8997764213       -1.5079443338        0.3078487261
 C         -2.2595888365       -0.2560952484       -0.5477031936
 N         -2.3297015133        1.0090565921        0.3242659162
 O         -2.7430095652        0.8482331095        1.4310782572
 O         -1.9707000578        2.0144145030       -0.2081989784
 N         -1.2573630126       -0.0079968307       -1.6458910219
 O         -1.6724091179        0.1941575272       -2.7425140597
 O         -0.1046110956       -0.0299868266       -1.2887875406
 N         -3.6478099026       -0.4941527657       -1.1849275611
 O         -4.4972778914        0.2868088514       -0.8864687170
 O         -3.7033462423       -1.4440819098       -1.8980773369
 H         -3.0230835974       -1.2540175804        1.8782900850
 H         -1.7356895820       -2.3470581331       -0.3774547113
 H         -0.9694723812       -1.3042859757        0.8536579802
 O          4.7280521604        0.2292916065       -0.4567497479
 C          3.5575626241        0.9683204480       -0.4209769803
 C          2.4709415702        0.2840808646        0.4445328592
 N          3.0418696324        0.0057861167        1.8517294731
 O          3.5028840046       -1.0785494059        2.0153642287
 O          2.9876288325        0.9318541543        2.6001818831
 N          1.2459089417        1.1692256894        0.6077611856
 O          0.3551416324        0.6970025745        1.2590851978
 O          1.2836868010        2.2321024361        0.0734850421
 N          2.0418880159       -1.0556344091       -0.1491257157
 O          1.2399953160       -1.6693441666        0.4886203458
 O          2.5625533094       -1.3591721262       -1.1804027817
 H          4.6394907833       -0.5147264350       -1.0695535549
 H          3.1317197582        1.1476111990       -1.4166875267
 H          3.7962608853        1.9346051088        0.0368319543
