  30
        -85.42737156
 O         -2.8933247185       -2.2894358163        1.0462505672
 C         -1.9563343222       -1.2819843833        1.2126158627
 C         -2.2740506753       -0.0579262287        0.3185801107
 N         -3.7546067344        0.3280104272        0.5209019849
 O         -4.5170081021       -0.1090664739       -0.2815524991
 O         -3.9654285495        0.9854578643        1.4923114877
 N         -1.4297988352        1.1327562022        0.6279890484
 O         -0.4346155063        0.9366744039        1.2865583593
 O         -1.7969229149        2.1770105447        0.1825256534
 N         -2.1047824330       -0.3994284037       -1.1906928352
 O         -2.2890375032        0.5038996846       -1.9369127126
 O         -1.8414145406       -1.5390555733       -1.4193678384
 H         -2.7098971582       -2.7860765577        0.2361257145
 H         -0.9326259808       -1.6137365347        0.9981018821
 H         -2.0116055357       -0.9580075230        2.2579942951
 O          1.6081794172        2.4000876701        0.0385593183
 C          2.7517666742        1.6588262629        0.2311386835
 C          2.5601041254        0.1447621295       -0.0908441511
 N          1.6673883658       -0.0143406171       -1.3033135477
 O          0.4956337939        0.1396588869       -1.0938863658
 O          2.2094893037       -0.2517427544       -2.3371005084
 N          3.9194748479       -0.5249023123       -0.3978982362
 O          3.9777398157       -1.6825727567       -0.1107149001
 O          4.7527942257        0.1735632889       -0.8796014758
 N          1.9569836996       -0.6137506086        1.0982594998
 O          1.1594671820       -1.4652609001        0.8378988214
 O          2.3761305944       -0.2891332902        2.1670584611
 H          0.9677739706        2.2606615883        0.7555531762
 H          3.1397856508        1.7199476409        1.2581322299
 H          3.5068112561        2.0449485012       -0.4641591938
