  30
        -85.42757405
 O         -2.7782615995       -2.2075722817        1.3413241888
 C         -1.8664548435       -1.1643511106        1.3199825563
 C         -2.2507075187       -0.0949317250        0.2674149087
 N         -3.7460668699        0.2467127563        0.4391701718
 O         -4.4930217411       -0.3187875712       -0.2952559225
 O         -3.9805445304        1.0107752258        1.3227894121
 N         -1.4639311932        1.1687167157        0.3948966418
 O         -1.8923709340        2.1227539210       -0.1795013028
 O         -0.4528457585        1.1122549214        1.0538660088
 N         -2.0863175936       -0.6423447584       -1.1794430769
 O         -2.2461636876        0.1532799920       -2.0450300991
 O         -1.8526086647       -1.8087653690       -1.2482891524
 H         -2.6165092771       -2.8076276991        0.5991930511
 H         -0.8411379235       -1.5005294593        1.1188942733
 H         -1.8957362701       -0.6904150980        2.3075543920
 O          1.6026860719        2.4537919849       -0.3315827563
 C          2.7733459757        1.7643716309       -0.0851387092
 C          2.5549348072        0.2271419472       -0.0819558326
 N          1.6844507372       -0.1621273701       -1.2627068272
 O          2.2648852148       -0.3800058273       -2.2788467039
 O          0.5012837788       -0.1568311855       -1.0663020146
 N          3.8901549014       -0.5373808346       -0.2003878838
 O          4.8792940320        0.1225118395       -0.1287715560
 O          3.7736203514       -1.7179848471       -0.3237663233
 N          1.9169092607       -0.2563170675        1.2266934930
 O          1.2816097333       -1.2663317194        1.1483908240
 O          2.1627094100        0.3970165218        2.1941751986
 H          1.0212569370        2.4543064800        0.4453135206
 H          3.2415035391        2.0344490993        0.8710056278
 H          3.4659328036        2.0047950635       -0.8992330813
