%chk=45.chk
%nprocshared=4
%mem=8000mb
#T wB97XD/def2svpp opt=tight freq int(grid=ultrafine) scf=(verytight,qc)

Comment gs min

0 1
 O         -2.8522710415       -1.6088214277        1.8500423546
 C         -1.8441331280       -0.7187931233        1.5163805489
 C         -2.1484041581        0.0110337445        0.1830149583
 N         -3.6051708713        0.5163078655        0.2294013168
 O         -4.3965371896       -0.1257096196       -0.3878700412
 O         -3.7737962020        1.4759920904        0.9137973650
 N         -1.2472397717        1.1856010504       -0.0598209958
 O         -0.1711028535        1.1441149713        0.4865826045
 O         -1.6589222225        2.0373727651       -0.7829125164
 N         -2.0478620363       -0.9569715627       -1.0257837926
 O         -2.0300232662       -0.4392479624       -2.0944958834
 O         -2.0332847600       -2.1143330162       -0.7411845123
 H         -2.7817860413       -2.4096957871        1.3102386115
 H         -0.8601441812       -1.1984837367        1.4390648764
 H         -1.8075256217        0.0345796619        2.3111914152
 O          4.3989906403       -1.3307186023        0.5398377818
 C          4.0331423061       -0.1437201692       -0.0691371040
 C          2.4900493387        0.0460457990       -0.0781331124
 N          1.9986020208       -0.0017199745        1.3880356178
 O          2.3846084582        0.8791665297        2.0789329459
 O          1.3191708522       -0.9439559746        1.6677243800
 N          2.1648288402        1.4265612919       -0.6799373174
 O          1.5592311168        1.4027687106       -1.7084255209
 O          2.6137372177        2.3523442750       -0.0870810096
 N          1.7902141604       -1.0250249357       -0.8695609869
 O          2.4939747611       -1.8221414828       -1.4212329861
 O          0.5907124546       -0.9868643426       -0.8663440255
 H          4.2871570742       -2.0746224184       -0.0696246050
 H          4.4004599418       -0.0667462192       -1.1010134309
 H          4.4517875871        0.6751073808        0.5285389537


