  16
        -24.20689774
 C          1.1012589355        0.4025682553        1.4144848695
 C          0.6458289733        0.0376123245       -0.0036310813
 C          1.0756116967        1.1188038461       -1.0041090449
 N          1.1768948038       -1.2817137333       -0.3216527826
 C         -0.8754818702       -0.1178557859        0.0473810906
 O         -1.5270370684        0.7514343901       -0.7368603111
 O         -1.4553158130       -0.9234646466        0.7203848386
 H          2.1857189387        0.4759981022        1.4465054757
 H          0.7781968923       -0.3748947451        2.1008085254
 H          0.6738130273        1.3538051261        1.7208846537
 H          0.6542196156        2.0830457160       -0.7353732490
 H          0.7414588717        0.8665848987       -2.0084239844
 H          2.1614953737        1.1994814129       -1.0060362312
 H          2.1900784803       -1.2656847251       -0.2993488185
 H          0.8817144317       -1.5833212988       -1.2430170842
 H         -2.4847608930        0.6139353472       -0.6562390803
