  16
        -24.20888109
 C          1.1349812346        0.3288841477        1.4804270019
 C          0.6434426199        0.0523542041        0.0527587686
 C          1.0018260676        1.2203062020       -0.8757374771
 N          1.1809412424       -1.1708762996       -0.5245275894
 C         -0.8815318680       -0.0533470851        0.0579773910
 O         -1.3589634457       -0.5690063570       -1.0728765934
 O         -1.5948547520        0.3063237675        0.9570252211
 H          0.8847994832       -0.5047728855        2.1340639194
 H          0.6587816406        1.2216355558        1.8750019819
 H          2.2140364071        0.4691647510        1.4828658936
 H          2.0782069571        1.3765737616       -0.8712674678
 H          0.5130560944        2.1330688573       -0.5450977652
 H          0.6845564378        0.9846705572       -1.8876415488
 H          0.9556874920       -1.9732274692        0.0525870549
 H          2.1899422150       -1.1059845632       -0.5973949947
 H         -2.3283606790       -0.6093862380       -1.0404033745
