  16
        -24.21063953
 C          1.1586874785        0.3280113353        1.4588169830
 C          0.6454560580        0.0491372194        0.0466111018
 C          0.9687655954        1.2371515244       -0.8867611468
 N          1.1989103488       -1.2130044394       -0.4156042786
 C         -0.8773133608       -0.0521634071        0.0666691408
 O         -1.3612384335       -0.6979010411       -1.0018685071
 O         -1.5944317628        0.4350547861        0.8970846698
 H          1.0065565758       -0.5510650959        2.0783590089
 H          0.6170001723        1.1624690700        1.8936441805
 H          2.2199959039        0.5609925912        1.4322578849
 H          0.5988273458        1.0403568224       -1.8917170742
 H          2.0464822178        1.3838115994       -0.9314889575
 H          0.5078532846        2.1486207573       -0.5146075606
 H          2.2034216444       -1.1304745818       -0.5261971821
 H          0.7976964070       -1.4747323640       -1.3086493587
 H         -2.3302362202       -0.7262987838       -0.9596976453
