  16
        -24.21130054
 C          1.1075076699        0.9043576153        1.1754851804
 C          0.6489665255        0.0109828130        0.0203251895
 C          1.0207437079        0.6542463091       -1.3335562143
 N          1.2158673429       -1.3148498330        0.1972388404
 C         -0.8683712855       -0.1309692866       -0.0020853496
 O         -1.5081788830        0.9997703023        0.3048066449
 O         -1.4509899055       -1.1337930546       -0.3207991862
 H          2.1888930874        1.0077970060        1.1421305754
 H          0.8346574754        0.4445161699        2.1208125934
 H          0.6502394870        1.8863834678        1.1070249125
 H          0.6936756339        0.0197706254       -2.1560021484
 H          2.1005596157        0.7771305083       -1.3920792631
 H          0.5520470354        1.6298330182       -1.4336334807
 H          2.1473426512       -1.3661128695       -0.1972486960
 H          0.6296274279       -2.0079067121       -0.2559079388
 H         -2.4674667852        0.8646226942        0.2441060154
