  16
        -24.21206561
 C          1.0836368685        0.8122445964        1.2568163508
 C          0.6445105067        0.0520419897       -0.0003733795
 C          1.0845718769        0.8092815876       -1.2589282312
 N          1.2664999871       -1.2577826801        0.0015584138
 C         -0.8883742497        0.0183090353       -0.0004482370
 O         -1.3810096648       -1.2296759188        0.0061367406
 O         -1.5996621543        0.9872815115       -0.0054658282
 H          2.1657254818        0.9032151915        1.2579795280
 H          0.7779517634        0.2747929743        2.1521778068
 H          0.6330931408        1.8003601188        1.2696770626
 H          2.1665683039        0.9012687925       -1.2590650978
 H          0.6330669629        1.7969077665       -1.2748975773
 H          0.7803968196        0.2692514299       -2.1532621504
 H          0.9890229067       -1.7880363668       -0.8167476270
 H          0.9875678837       -1.7862609060        0.8205153948
 H         -2.3508081738       -1.2062915519        0.0062735183
