  16
        -24.21051826
 C          1.0036568308        1.0814086921        1.0467798005
 C          0.6325414374        0.0781359956       -0.0499492003
 C          1.1069405489        0.5696020460       -1.4182879807
 N          1.1504543436       -1.2432360611        0.3168690967
 C         -0.9113689885       -0.0219990634       -0.0390050449
 O         -1.3630116375       -1.0680064158        0.6441701988
 O         -1.6261495461        0.7829198088       -0.5641912777
 H          0.6944837225        0.7067687077        2.0204318720
 H          0.5057024272        2.0289874913        0.8617565141
 H          2.0797562537        1.2466210626        1.0590564047
 H          0.8827416158       -0.1697529564       -2.1857745067
 H          2.1795405891        0.7552996483       -1.4080379446
 H          0.5881104779        1.4892766812       -1.6725563939
 H          1.1926000865       -1.8460290213       -0.4992958859
 H          2.0874318945       -1.1711750829        0.6962674249
 H         -0.5771403851       -1.5812223157        0.9423295824
