  16
        -24.21376263
 C          1.0734659511        0.7650473153        1.2605679224
 C          0.6471603618        0.0055005086       -0.0000299099
 C          1.0733707544        0.7674774676       -1.2591582015
 N          1.2854177028       -1.2981985165       -0.0012526910
 C         -0.8794913623       -0.1214241837        0.0001519543
 O         -1.5090675312        1.0580216658        0.0000383266
 O         -1.4701396103       -1.1703781316       -0.0001586493
 H          0.7404863470        0.2376181131        2.1521255076
 H          0.6481592564        1.7642320718        1.2614989104
 H          2.1574284290        0.8306786060        1.2813799278
 H          0.7402308690        0.2418606995       -2.1517228431
 H          2.1573324101        0.8330551806       -1.2799879890
 H          0.6481681316        1.7667040421       -1.2580767727
 H          0.9966649037       -1.8273845344       -0.8175569014
 H          0.9958886906       -1.8292543871        0.8135615105
 H         -2.4706686130        0.9255572722       -0.0001566352
  16
        -24.21206561
 C          1.0836368685        0.8122445964        1.2568163508
 C          0.6445105067        0.0520419897       -0.0003733795
 C          1.0845718769        0.8092815876       -1.2589282312
 N          1.2664999871       -1.2577826801        0.0015584138
 C         -0.8883742497        0.0183090353       -0.0004482370
 O         -1.3810096648       -1.2296759188        0.0061367406
 O         -1.5996621543        0.9872815115       -0.0054658282
 H          2.1657254818        0.9032151915        1.2579795280
 H          0.7779517634        0.2747929743        2.1521778068
 H          0.6330931408        1.8003601188        1.2696770626
 H          2.1665683039        0.9012687925       -1.2590650978
 H          0.6330669629        1.7969077665       -1.2748975773
 H          0.7803968196        0.2692514299       -2.1532621504
 H          0.9890229067       -1.7880363668       -0.8167476270
 H          0.9875678837       -1.7862609060        0.8205153948
 H         -2.3508081738       -1.2062915519        0.0062735183
  16
        -24.21139385
 C          1.1748442934        0.2282250631        1.4688918069
 C          0.6430445143        0.0753054903        0.0461144429
 C          1.0601934183        1.2582841603       -0.8287206665
 N          1.1959734624       -1.1469433818       -0.5313840367
 C         -0.8832960275       -0.0472807116        0.0779280467
 O         -1.4183009320       -0.0453314527       -1.1549519139
 O         -1.5560703645       -0.2139055153        1.0607898168
 H          2.2595355066        0.1869804454        1.4505830563
 H          0.7980876881       -0.5732174628        2.0992540390
 H          0.8536945934        1.1749989111        1.8930004859
 H          0.7039018356        2.1911833919       -0.4002653213
 H          0.6518314248        1.1519840563       -1.8302317337
 H          2.1441726967        1.2834114183       -0.8920036259
 H          0.8494888381       -1.2826660167       -1.4747553562
 H          0.9409804905       -1.9540820024        0.0272570013
 H         -2.3784590279       -0.1729771919       -1.1005358046
  16
        -24.21130054
 C          1.1075076699        0.9043576153        1.1754851804
 C          0.6489665255        0.0109828130        0.0203251895
 C          1.0207437079        0.6542463091       -1.3335562143
 N          1.2158673429       -1.3148498330        0.1972388404
 C         -0.8683712855       -0.1309692866       -0.0020853496
 O         -1.5081788830        0.9997703023        0.3048066449
 O         -1.4509899055       -1.1337930546       -0.3207991862
 H          2.1888930874        1.0077970060        1.1421305754
 H          0.8346574754        0.4445161699        2.1208125934
 H          0.6502394870        1.8863834678        1.1070249125
 H          0.6936756339        0.0197706254       -2.1560021484
 H          2.1005596157        0.7771305083       -1.3920792631
 H          0.5520470354        1.6298330182       -1.4336334807
 H          2.1473426512       -1.3661128695       -0.1972486960
 H          0.6296274279       -2.0079067121       -0.2559079388
 H         -2.4674667852        0.8646226942        0.2441060154
  16
        -24.21112054
 C          1.0352344214        0.7219280936        1.2969360722
 C          0.6500766086        0.0063703357       -0.0094731450
 C          1.0894474023        0.8415243540       -1.2201737776
 N          1.2407887694       -1.3200477966       -0.1157297153
 C         -0.8693589998       -0.1285834680       -0.0012440419
 O         -1.5006373053        1.0370391495       -0.1571344298
 O         -1.4593521580       -1.1650053285        0.1602930786
 H          2.1154188625        0.8460935227        1.3350764944
 H          0.7163467608        0.1372058749        2.1588450797
 H          0.5674596793        1.7017014335        1.3448426777
 H          0.6252194743        1.8227586381       -1.1992207056
 H          0.8113114473        0.3281528194       -2.1361804014
 H          2.1700809512        0.9501617716       -1.2024029868
 H          1.9658608110       -1.4578470644        0.5769427910
 H          0.5268720686       -2.0282475955        0.0248392696
 H         -2.4612183548        0.9009037647       -0.1316467437
  16
        -24.21063953
 C          1.1586874785        0.3280113353        1.4588169830
 C          0.6454560580        0.0491372194        0.0466111018
 C          0.9687655954        1.2371515244       -0.8867611468
 N          1.1989103488       -1.2130044394       -0.4156042786
 C         -0.8773133608       -0.0521634071        0.0666691408
 O         -1.3612384335       -0.6979010411       -1.0018685071
 O         -1.5944317628        0.4350547861        0.8970846698
 H          1.0065565758       -0.5510650959        2.0783590089
 H          0.6170001723        1.1624690700        1.8936441805
 H          2.2199959039        0.5609925912        1.4322578849
 H          0.5988273458        1.0403568224       -1.8917170742
 H          2.0464822178        1.3838115994       -0.9314889575
 H          0.5078532846        2.1486207573       -0.5146075606
 H          2.2034216444       -1.1304745818       -0.5261971821
 H          0.7976964070       -1.4747323640       -1.3086493587
 H         -2.3302362202       -0.7262987838       -0.9596976453
  16
        -24.21051826
 C          1.0036568308        1.0814086921        1.0467798005
 C          0.6325414374        0.0781359956       -0.0499492003
 C          1.1069405489        0.5696020460       -1.4182879807
 N          1.1504543436       -1.2432360611        0.3168690967
 C         -0.9113689885       -0.0219990634       -0.0390050449
 O         -1.3630116375       -1.0680064158        0.6441701988
 O         -1.6261495461        0.7829198088       -0.5641912777
 H          0.6944837225        0.7067687077        2.0204318720
 H          0.5057024272        2.0289874913        0.8617565141
 H          2.0797562537        1.2466210626        1.0590564047
 H          0.8827416158       -0.1697529564       -2.1857745067
 H          2.1795405891        0.7552996483       -1.4080379446
 H          0.5881104779        1.4892766812       -1.6725563939
 H          1.1926000865       -1.8460290213       -0.4992958859
 H          2.0874318945       -1.1711750829        0.6962674249
 H         -0.5771403851       -1.5812223157        0.9423295824
  16
        -24.20888109
 C          1.1349812346        0.3288841477        1.4804270019
 C          0.6434426199        0.0523542041        0.0527587686
 C          1.0018260676        1.2203062020       -0.8757374771
 N          1.1809412424       -1.1708762996       -0.5245275894
 C         -0.8815318680       -0.0533470851        0.0579773910
 O         -1.3589634457       -0.5690063570       -1.0728765934
 O         -1.5948547520        0.3063237675        0.9570252211
 H          0.8847994832       -0.5047728855        2.1340639194
 H          0.6587816406        1.2216355558        1.8750019819
 H          2.2140364071        0.4691647510        1.4828658936
 H          2.0782069571        1.3765737616       -0.8712674678
 H          0.5130560944        2.1330688573       -0.5450977652
 H          0.6845564378        0.9846705572       -1.8876415488
 H          0.9556874920       -1.9732274692        0.0525870549
 H          2.1899422150       -1.1059845632       -0.5973949947
 H         -2.3283606790       -0.6093862380       -1.0404033745
  16
        -24.20689774
 C          1.1012589355        0.4025682553        1.4144848695
 C          0.6458289733        0.0376123245       -0.0036310813
 C          1.0756116967        1.1188038461       -1.0041090449
 N          1.1768948038       -1.2817137333       -0.3216527826
 C         -0.8754818702       -0.1178557859        0.0473810906
 O         -1.5270370684        0.7514343901       -0.7368603111
 O         -1.4553158130       -0.9234646466        0.7203848386
 H          2.1857189387        0.4759981022        1.4465054757
 H          0.7781968923       -0.3748947451        2.1008085254
 H          0.6738130273        1.3538051261        1.7208846537
 H          0.6542196156        2.0830457160       -0.7353732490
 H          0.7414588717        0.8665848987       -2.0084239844
 H          2.1614953737        1.1994814129       -1.0060362312
 H          2.1900784803       -1.2656847251       -0.2993488185
 H          0.8817144317       -1.5833212988       -1.2430170842
 H         -2.4847608930        0.6139353472       -0.6562390803
