  30
        -34.69237760
 C         -3.5323606448       -0.2008537889        1.4514747098
 C         -2.9542485355       -0.4241957132        0.0506130505
 N         -3.3473753103        0.5912841446       -0.9179572665
 C         -1.4165848575       -0.4572532242        0.0951548229
 N         -0.7976748740       -0.6711905989       -1.2026176095
 H         -4.6203340881       -0.1716600256        1.4143858714
 H         -3.1724984042        0.7421185474        1.8599866245
 H         -3.2319026880       -1.0029952761        2.1205036935
 H         -3.3174316546       -1.3852272288       -0.3387749455
 H         -3.0501435674        1.5067405149       -0.5924888676
 H         -4.3562449960        0.6142131901       -1.0185735461
 H         -1.0868260324       -1.2478753218        0.7739594774
 H         -1.0515541061        0.5006312574        0.4786810088
 H         -1.1911617267        0.0055319683       -1.8518801041
 H         -1.0470774609       -1.5915871709       -1.5540027285
 C          2.9986416859       -1.5800572938       -0.2677073111
 C          2.8624168270       -0.0553063564       -0.1904999331
 N          2.0437760619        0.5129256619       -1.2513317094
 C          2.2440865516        0.3630038547        1.1569741371
 N          2.0063059473        1.7902727125        1.2787070406
 H          3.4667214720       -1.8734844233       -1.2061202934
 H          2.0132746904       -2.0392671270       -0.2135806585
 H          3.6056925551       -1.9542096908        0.5532311703
 H          3.8607015258        0.3983885043       -0.2751042192
 H          1.1077845912        0.1055233968       -1.2124907128
 H          2.4374954308        0.2798575715       -2.1569050228
 H          2.8955651140        0.0480364051        1.9762679356
 H          1.2800685042       -0.1402271607        1.2698624765
 H          1.4775351738        2.0844111405        0.4615991089
 H          2.8934787923        2.2843596407        1.2392423674
