  30
        -34.69212970
 C         -2.4836820121       -1.2844561918        0.9895698929
 C         -2.7159511496        0.1390510009        0.4692206925
 N         -2.0493835141        1.1652559252        1.2565731711
 C         -2.2284107274        0.2720607555       -0.9855022124
 N         -2.3967735147        1.5992748019       -1.5476452800
 H         -2.9802548505       -2.0129777498        0.3530285414
 H         -2.8734897768       -1.3871656018        2.0011197008
 H         -1.4173826466       -1.5006320908        1.0065241985
 H         -3.7936525703        0.3574304372        0.4987435493
 H         -1.0409277822        1.0033116835        1.2336787306
 H         -2.3474445364        1.1100834432        2.2248354026
 H         -2.7596421193       -0.4428385308       -1.6198330820
 H         -1.1609027789        0.0387212026       -1.0180905160
 H         -1.9549997227        2.2622266423       -0.9165280858
 H         -3.3850826955        1.8345342496       -1.5693267055
 C          3.4446068317       -1.9439228809       -0.4716395477
 C          2.9467557655       -0.5591150015       -0.0446456997
 N          2.9286611956        0.4202004581       -1.1223344100
 C          1.5220191829       -0.6454924787        0.5314786302
 N          0.9742928717        0.6374914099        0.9356091844
 H          4.4540909008       -1.8779896340       -0.8742407919
 H          2.7918113783       -2.3580873819       -1.2387118530
 H          3.4556173240       -2.6238925741        0.3763587640
 H          3.6158147751       -0.1607288871        0.7300631439
 H          2.3328566083        0.0931352449       -1.8774113465
 H          3.8601073124        0.5523183557       -1.5002416090
 H          1.5134735712       -1.3171093554        1.3939239318
 H          0.8585052181       -1.0613024985       -0.2343082208
 H          1.0685616127        1.2805770774        0.1531571555
 H          1.5280836593        1.0213919756        1.6960005915
