  30
        -34.69209116
 C         -3.6501259583       -1.2614805215        0.9872099865
 C         -3.0091333451       -0.2998520239       -0.0186915804
 N         -3.0288610096        1.0942368870        0.4026919610
 C         -1.5432030458       -0.6855340452       -0.2858795287
 N         -0.8645411885        0.2037112889       -1.2125724976
 H         -4.6873521146       -0.9850350306        1.1698501383
 H         -3.1112527615       -1.2301608091        1.9330622890
 H         -3.6266445962       -2.2806100708        0.6098815321
 H         -3.5639505738       -0.3491917809       -0.9654790064
 H         -2.5365217357        1.1948584721        1.2856679710
 H         -3.9817864765        1.4105513899        0.5437126974
 H         -1.4957482488       -1.7044188001       -0.6789336101
 H         -0.9937005578       -0.6567921091        0.6609279761
 H         -0.9963852744        1.1574040209       -0.8843083082
 H         -1.3065727636        0.1468307025       -2.1257383486
 C          2.4654714151       -1.7313816476       -0.3372022201
 C          2.7725008101       -0.2307139373       -0.2743289631
 N          2.2022804288        0.5278028919       -1.3776501000
 C          2.2413142543        0.3760815298        1.0376663217
 N          2.4645521998        1.8043766750        1.1640405923
 H          2.8741215644       -2.1647116448       -1.2488510046
 H          1.3882006316       -1.8855322462       -0.3330283063
 H          2.8981925827       -2.2495435432        0.5152943911
 H          3.8622610796       -0.0865768862       -0.3110078650
 H          1.1870044969        0.4147105541       -1.3719188349
 H          2.5444079256        0.1663009404       -2.2618789635
 H          2.7070135112       -0.1246121148        1.8908269109
 H          1.1618209418        0.2101169898        1.0855716153
 H          2.0833637167        2.2527260244        0.3354080829
 H          3.4632154883        1.9920014302        1.1611929492
