  30
        -34.69259714
 C         -3.3922617331       -1.1726987380        0.2796638433
 C         -2.8572725394        0.2459737412        0.5067120759
 N         -1.7853319023        0.3170011736        1.4882577622
 C         -2.3279547990        0.8391791410       -0.8122006513
 N         -1.7420289362        2.1603568081       -0.6736825033
 H         -3.7982854529       -1.5788300998        1.2048718666
 H         -2.5854666437       -1.8206018475       -0.0580623974
 H         -4.1787755254       -1.1715283276       -0.4712341950
 H         -3.6761179808        0.8810225608        0.8757716707
 H         -0.9908985621       -0.2324302159        1.1562773024
 H         -2.0918322457       -0.0851651885        2.3678721944
 H         -3.1375433882        0.8933062175       -1.5447711961
 H         -1.5518599744        0.1758852932       -1.2041455345
 H         -1.0501386488        2.1141099095        0.0697563936
 H         -2.4552546458        2.8141448713       -0.3629852560
 C          3.6580576819        0.7870178523       -0.9102082544
 C          2.8231100817       -0.4593205807       -0.6009867215
 N          3.4493859177       -1.3664141488        0.3535677126
 C          1.4441242214       -0.0660647313       -0.0445071372
 N          0.5848526397       -1.2023925893        0.2487951586
 H          4.6310923693        0.5049849501       -1.3097296581
 H          3.8108854686        1.3713640776       -0.0040600470
 H          3.1517130117        1.4114178992       -1.6413572928
 H          2.6780783135       -1.0319251974       -1.5270646765
 H          3.6337298021       -0.8733639202        1.2227019215
 H          4.3385966571       -1.6982783443       -0.0039924029
 H          0.9305853391        0.5825826709       -0.7575867953
 H          1.5793453051        0.4901048529        0.8882030473
 H          1.0910766011       -1.8343194574        0.8635952455
 H          0.3991732475       -1.7161912597       -0.6082990739
