  30
        -34.69213907
 C         -3.0001001444       -0.6225212280        1.3605163409
 C         -1.9352702622       -0.0960407939        0.3942904682
 N         -1.2412613919       -1.1603432408       -0.3295633155
 C         -2.5651121739        0.8698491512       -0.6277270080
 N         -1.6444983531        1.4615708961       -1.5757371560
 H         -2.5542989396       -1.2998466007        2.0877293958
 H         -3.7754171361       -1.1595714314        0.8150753808
 H         -3.4637826869        0.1998797393        1.8983463695
 H         -1.1694187759        0.4439128655        0.9658495556
 H         -1.8968799258       -1.6421843463       -0.9392714959
 H         -0.8831338649       -1.8451306383        0.3295813578
 H         -3.0591019197        1.6805749122       -0.0857911891
 H         -3.3281003643        0.3324325637       -1.2011906870
 H         -1.1738977936        0.7299478071       -2.0973130725
 H         -0.9219848698        1.9784301350       -1.0852231355
 C          2.7614592860       -1.7880864135       -0.3774304099
 C          2.4651484001       -0.2917046403       -0.2249651737
 N          1.4250614289        0.1937113029       -1.1197983376
 C          2.0326638614        0.0327297098        1.2172829886
 N          1.7072440303        1.4302920397        1.4338030609
 H          3.0896001073       -2.0090940348       -1.3919566105
 H          1.8637407940       -2.3687287459       -0.1711087862
 H          3.5424207413       -2.0971429468        0.3130013148
 H          3.3780075619        0.2767795341       -0.4535784960
 H          0.5558955950       -0.3088261899       -0.9334410698
 H          1.6836136063        0.0186821003       -2.0849998984
 H          2.8238586825       -0.2527028496        1.9148580119
 H          1.1389193124       -0.5520437952        1.4558425737
 H          1.0566092510        1.7147910780        0.7064460964
 H          2.5416032911        1.9967404118        1.3124713459
