  30
        -34.69262053
 C         -2.7873205214       -1.3500508087        0.2330262850
 C         -1.9640336719       -0.0612967303        0.1333559029
 N         -1.1288804239        0.0046815263       -1.0579390074
 C         -2.8782205239        1.1796696812        0.1559124330
 N         -2.1723506717        2.4437691571        0.0836680020
 H         -3.4854222462       -1.4159961812       -0.6002972263
 H         -3.3548765336       -1.3720074363        1.1599384766
 H         -2.1326849325       -2.2199420520        0.2050969805
 H         -1.2849395392       -0.0044532076        0.9941931576
 H         -1.7011025694       -0.1077194661       -1.8891826198
 H         -0.4307115337       -0.7387320379       -1.0399974947
 H         -3.4763043164        1.1719024050        1.0711712764
 H         -3.5620611041        1.1344693394       -0.6978173256
 H         -1.5984036546        2.4506981744       -0.7541019712
 H         -1.5325510373        2.5261711276        0.8681826560
 C          3.6217327929       -1.6061074418        0.5137698408
 C          2.4846234910       -0.8333014696       -0.1641750463
 N          1.2728826338       -1.6348042023       -0.3141094539
 C          2.1558592743        0.4516909284        0.6264479654
 N          1.3811174477        1.4509849540       -0.0760092668
 H          3.8338406885       -2.5273417489       -0.0279546264
 H          3.3453983712       -1.8609196832        1.5361094370
 H          4.5290246146       -1.0085160213        0.5408253054
 H          2.7991415369       -0.5493810736       -1.1771393761
 H          0.9551537366       -1.9384799915        0.6024367219
 H          1.4732244624       -2.4679958592       -0.8592091394
 H          3.0964314366        0.9160828173        0.9385361302
 H          1.6021088531        0.1753354413        1.5295032860
 H          0.4970253948        1.0560733046       -0.3916377338
 H          1.8831320292        1.7575854859       -0.9033207657
