  30
        -34.69181993
 C         -4.1291575144       -1.2412086143       -0.6345266784
 C         -3.1763630214       -0.3136636394        0.1262959144
 N         -2.9384838554       -0.7165328654        1.5063562429
 C         -1.8106879630       -0.2315732970       -0.5785409909
 N         -0.8664008834        0.6550904831        0.0780220630
 H         -4.2891796150       -0.8771869493       -1.6460581654
 H         -5.0927504925       -1.2935411742       -0.1302125506
 H         -3.7121184242       -2.2457684172       -0.6903700170
 H         -3.6110048402        0.6940902463        0.1642814885
 H         -2.5758517099       -1.6652932391        1.5302535197
 H         -3.8037078651       -0.7058231437        2.0349024222
 H         -1.9464701266        0.1067053951       -1.6086018552
 H         -1.3633074840       -1.2308301364       -0.6022645878
 H         -0.8121443485        0.3936084819        1.0590660396
 H         -1.2129709274        1.6095189831        0.0494509386
 C          2.1707071258       -1.5118960637       -0.0944833987
 C          2.7014728045       -0.1188976376       -0.4531120194
 N          1.8389031162        0.6192825490       -1.3634147143
 C          2.8833114970        0.7337212244        0.8163709315
 N          3.3813607356        2.0728699612        0.5622132873
 H          2.0597299912       -2.1189883189       -0.9919633109
 H          1.1990876698       -1.4199570904        0.3863172882
 H          2.8513961595       -2.0201987568        0.5843103428
 H          3.6784422295       -0.2261723110       -0.9470877414
 H          0.9206833003        0.7320400428       -0.9297717738
 H          1.7083274534        0.0939590014       -2.2218290537
 H          3.5724854754        0.2327241796        1.5015802520
 H          1.9132026278        0.8343749982        1.3110989109
 H          2.7642798166        2.5109942636       -0.1159597674
 H          4.2979392938        2.0160906880        0.1270596911
