  30
        -34.69213081
 C         -2.9652073779       -0.5230715285        1.4120763369
 C         -1.9219967563       -0.0666593976        0.3886085689
 N         -1.2635416823       -1.1778711507       -0.2971840630
 C         -2.5669701016        0.8532285247       -0.6662177677
 N         -1.6735703165        1.3373421506       -1.6982256655
 H         -3.4080259270        0.3353732935        1.9096480626
 H         -2.5056889818       -1.1583471660        2.1679984457
 H         -3.7588342361       -1.0852552217        0.9209910596
 H         -1.1325345367        0.4904892261        0.9088339821
 H         -1.9452810058       -1.6867530607       -0.8541749028
 H         -0.8885430808       -1.8280580093        0.3871540291
 H         -2.9992216975        1.7197292451       -0.1589066047
 H         -3.3796237177        0.3114806335       -1.1620001762
 H         -1.2755400851        0.5494344465       -2.1980877335
 H         -0.8956430676        1.8379110770       -1.2804780766
 C          2.7846175202       -1.7347784263       -0.4636602417
 C          2.4605181490       -0.2553865923       -0.2267958221
 N          1.3947313962        0.2535955127       -1.0776649827
 C          2.0473255577       -0.0156855518        1.2374585366
 N          1.7140914811        1.3643757102        1.5376121403
 H          3.0985224889       -1.8947658770       -1.4940058141
 H          1.9028849705       -2.3445020161       -0.2730653500
 H          3.5843528236       -2.0630468303        0.1956671170
 H          3.3570645449        0.3441204090       -0.4399703781
 H          0.5429538696       -0.2832101195       -0.9106906361
 H          1.6433326202        0.1424625646       -2.0549626014
 H          2.8515513172       -0.3324031781        1.9059705809
 H          1.1623873139       -0.6210970782        1.4563142612
 H          1.0458146303        1.6839225954        0.8414996564
 H          2.5409311541        1.9449236004        1.4326243377
