  30
        -34.69205751
 C         -2.5806486420       -1.0922327086        1.2361867600
 C         -2.7796256861        0.2404083743        0.5050442699
 N         -1.9728686369        1.3269915046        1.0398622633
 C         -2.4386444883        0.0927600843       -0.9895932426
 N         -2.5685579189        1.3217490384       -1.7504701702
 H         -3.1941439066       -1.8713996854        0.7901021042
 H         -2.8537963992       -0.9950303216        2.2858584097
 H         -1.5357303444       -1.3900002098        1.1757643905
 H         -3.8327598483        0.5442892626        0.5955937326
 H         -0.9848453204        1.0715256274        0.9883472007
 H         -2.1959450631        1.4770576306        2.0182373306
 H         -3.0837519333       -0.6651822018       -1.4420550994
 H         -1.4006382714       -0.2393691973       -1.0785833228
 H         -2.0148475752        2.0352021622       -1.2840911639
 H         -3.5337864320        1.6380675385       -1.7187034368
 C          3.3928463873       -1.9037521244       -0.7845668603
 C          2.9840975292       -0.6777176698        0.0383752920
 N          3.4003414738        0.5903269425       -0.5453683919
 C          1.4571889091       -0.6289236263        0.2241137715
 N          0.9974174786        0.5066068276        1.0044101297
 H          3.0834114643       -2.8186886910       -0.2859596391
 H          4.4734938689       -1.9308990433       -0.9154380911
 H          2.9248819923       -1.8701629680       -1.7672643920
 H          3.4566825618       -0.7371651932        1.0283340525
 H          3.0037170449        0.6869092059       -1.4757253335
 H          4.4096299017        0.6257484860       -0.6365145260
 H          1.1181229898       -1.5475726264        0.7101881296
 H          0.9825219462       -0.5647017971       -0.7602294423
 H          1.3788236941        1.3514894202        0.5866813235
 H          1.3758557054        0.4500261462        1.9458177456
