  30
        -34.69208515
 C         -3.7249295994       -1.4973620043        0.6036850781
 C         -3.0286714261       -0.2747355566       -0.0033796343
 N         -2.9926486157        0.8832769121        0.8787956140
 C         -1.5786284905       -0.6100349169       -0.3955412139
 N         -0.8581647174        0.5026052827       -0.9882900951
 H         -4.7503483102       -1.2541577292        0.8773965729
 H         -3.1964149493       -1.8267141561        1.4971101546
 H         -3.7442027920       -2.3183344980       -0.1084724756
 H         -3.5726540452        0.0353308551       -0.9058312888
 H         -2.5158408354        0.6448256962        1.7435165003
 H         -3.9324499903        1.1795059763        1.1174361796
 H         -1.5730791404       -1.4440949549       -1.1023326244
 H         -1.0323366675       -0.9164141675        0.5027586767
 H         -0.9145014908        1.2943865294       -0.3528097621
 H         -1.3168934014        0.7868341310       -1.8491211043
 C          2.3537418287       -1.7325089832       -0.3067260765
 C          2.7502566006       -0.2513387817       -0.3235006645
 N          2.1827348663        0.4947355863       -1.4360802240
 C          2.3115158524        0.4421358680        0.9795298220
 N          2.6309469079        1.8567201774        1.0337492381
 H          1.2706247367       -1.8234767027       -0.2558633439
 H          2.7896837547       -2.2376803394        0.5519843006
 H          2.7003585538       -2.2288286821       -1.2119185247
 H          3.8445443267       -0.1778680714       -0.4093392793
 H          1.1634472933        0.4812540441       -1.3645583216
 H          2.4365410050        0.0566627351       -2.3153102831
 H          2.7794335598       -0.0513746041        1.8357892594
 H          1.2262835481        0.3494009672        1.0755209157
 H          2.2427743403        2.2952927971        0.2031882513
 H          3.6384944218        1.9778762090        0.9809100682
