%chk=18.chk
%nprocshared=4
%mem=8000mb
#T wB97XD/def2svpp opt=tight freq int(grid=ultrafine) scf=(verytight,qc) Volume=tight

Dimer

0 1
 C         -2.7816016163       -0.8706824880       -0.0006937715
 C         -1.5282712891        0.0130529561       -0.0000130427
 C         -1.5195551817        0.8897854501       -1.2524465672
 C         -1.5201920059        0.8885299821        1.2533031207
 C         -0.3249015554       -0.9288029643       -0.0002306284
 Br         1.3939239250       -0.0023292637        0.0000122489
 H         -2.8085340353       -1.5067682147        0.8818073056
 H         -2.8082905612       -1.5056964688       -0.8839784001
 H         -3.6732912094       -0.2489400785       -0.0004092641
 H         -2.4009849824        1.5261850353       -1.2712596334
 H         -1.5203050231        0.2770694993       -2.1522925068
 H         -0.6393636926        1.5287271630       -1.2712560140
 H         -1.5212820031        0.2749236320        2.1525442891
 H         -2.4015907524        1.5249801692        1.2724334825
 H         -0.6399600713        1.5273750433        1.2730431016
 H         -0.3186162158       -1.5581097888       -0.8900358693
 H         -0.3186970040       -1.5583574137        0.8893963905


