  18
        -22.79842068
 C         -2.2071045682       -0.7803893012        0.7060368645
 C         -1.9347070309        0.6256072207        0.1877452961
 O         -1.1766408683        0.6238209722       -1.0081066218
 H         -2.8290216334       -1.3330159325        0.0032905454
 H         -2.7243147815       -0.7288284334        1.6598066440
 H         -1.2703885848       -1.3169437499        0.8375235231
 H         -1.3356208513        1.1877622007        0.9073752897
 H         -2.8792556311        1.1635734685        0.0277938106
 H         -1.6413078168        0.0908248065       -1.6638299612
 C          2.0884467723        0.8945304748        0.7671067617
 C          2.2554003305       -0.3086257727       -0.1558819064
 O          1.0600382200       -1.0259622288       -0.3278659015
 H          3.0410236983        1.3998332973        0.9017321076
 H          1.7194332545        0.5723772741        1.7383694779
 H          1.3758658818        1.5963334436        0.3368906244
 H          2.9715675993       -1.0176102080        0.2688713535
 H          2.6407271136        0.0280127159       -1.1308886277
 H          0.3746134871       -0.3963569694       -0.6146661877
