  18
        -22.79823455
 C         -2.6030962186       -0.9408374948       -0.1157577039
 C         -2.1325961149        0.4808104404       -0.4049126238
 O         -1.0343552034        0.8560435569        0.3864723507
 H         -2.8806608151       -1.0370320605        0.9313175095
 H         -1.8024119903       -1.6470898964       -0.3293335016
 H         -3.4634133593       -1.1850454955       -0.7331527688
 H         -2.9255339745        1.1989633796       -0.1780898681
 H         -1.8802772483        0.5732882856       -1.4732832119
 H         -0.3500940337        0.1709260333        0.2826921842
 C          2.4544865677        1.0108956681        0.2535327551
 C          2.1419566398       -0.3093901399       -0.4386108896
 O          1.1089898815       -1.0283006528        0.2094256600
 H          3.1985307926        1.5598321472       -0.3164592391
 H          2.8451756708        0.8342122339        1.2546962742
 H          1.5526790888        1.6134990596        0.3332536966
 H          3.0454923182       -0.9314948154       -0.4997313253
 H          1.7760810871       -0.1322209181       -1.4523049835
 H          1.3590938210       -1.1610939997        1.1314163145
