  18
        -22.79816597
 C         -2.4362604914       -0.9026634407       -0.4417032817
 C         -1.9409889296        0.5386521898       -0.3903544219
 O         -1.0887433345        0.7774157073        0.7005468587
 H         -3.1020826251       -1.0419273148       -1.2892778759
 H         -2.9717068228       -1.1461625300        0.4728318514
 H         -1.5913840368       -1.5825012603       -0.5392229975
 H         -2.7816766999        1.2279191476       -0.2717456921
 H         -1.4275492342        0.7837710210       -1.3345082524
 H         -0.3930113122        0.0966953648        0.6828437374
 C          2.2865624328        1.0544545864       -0.0997197187
 C          1.9608218273       -0.3915637638       -0.4514811219
 O          1.1424381138       -1.0143556372        0.5210740157
 H          1.3693179726        1.6175391989        0.0568931612
 H          2.8506577861        1.5132093208       -0.9066969834
 H          2.8822300465        1.1011168601        0.8108162149
 H          2.8860558220       -0.9688451921       -0.5848515728
 H          1.3889709623       -0.4392689091       -1.3810298968
 H          1.5854119892       -0.9620674042        1.3760381529
