  18
        -22.79819653
 C         -2.3495670622       -1.0524802150        0.1400427242
 C         -2.0033018209        0.3900881320        0.4855477069
 O         -1.1485806409        0.9858011460       -0.4726836429
 H         -2.9441248612       -1.4908741779        0.9364097567
 H         -1.4401642620       -1.6355250951        0.0138878137
 H         -2.9221650581       -1.0966321482       -0.7853086888
 H         -1.4537015404        0.4359148157        1.4284100274
 H         -2.9193147931        0.9877005205        0.5896430526
 H         -1.5678808975        0.9253987967       -1.3389934359
 C          2.5099894271        0.9485537948        0.2025007630
 C          2.0155892894       -0.4834374278        0.3767336577
 O          1.0539450041       -0.8420664771       -0.5824712339
 H          3.2602203982        1.1816545871        0.9534415799
 H          1.6779767023        1.6433098438        0.3053573963
 H          2.9466155991        1.0754056179       -0.7852655492
 H          1.6047141939       -0.6086018454        1.3917325102
 H          2.8408750477       -1.1903703197        0.2541033034
 H          0.3610367789       -0.1581176087       -0.5716193322
