  18
        -22.79838793
 C         -2.2265786697       -0.7583646156       -0.8638152833
 C         -2.2752180229        0.2753667229        0.2567760588
 O         -1.0473240588        0.9337530482        0.4359165124
 H         -1.9517702998       -0.2813137029       -1.8018630250
 H         -3.1974919159       -1.2324139322       -0.9802978030
 H         -1.4867448958       -1.5225217685       -0.6308985751
 H         -2.5836058713       -0.2142866091        1.1939137278
 H         -3.0037919809        1.0568950105        0.0235689815
 H         -0.3598871279        0.2514008560        0.5358980266
 C          2.3468012597        0.9757767749       -0.3028042893
 C          1.9860029497       -0.5023392517       -0.3694689852
 O          1.1357491817       -0.8991716059        0.6909363906
 H          2.9440626886        1.2497319345       -1.1676879080
 H          2.9219799383        1.1885532544        0.5973357392
 H          1.4424778511        1.5796336847       -0.2900211343
 H          2.8957146215       -1.1183946824       -0.3659368608
 H          1.4264894497       -0.7173894158       -1.2822906373
 H          1.5627667735       -0.6749107310        1.5260055209
