%nprocshared=4
%mem=8000mb
%chk=8.chk
%nprocshared=4
%mem=8000mb
#T wB97XD/def2svpp opt=tight freq int(grid=ultrafine) scf=(verytight,qc) Volume=tight

Dimer

0 1
 C         -2.2436495601       -0.8101468728       -0.6878087972
 C         -1.9366558986        0.6128729665       -0.2402514397
 O         -1.1767620346        0.6521184236        0.9538530306
 H         -2.7647332788       -0.7934766236       -1.6407357631
 H         -2.8743694528       -1.3131860874        0.0438239320
 H         -1.3199656774       -1.3735791427       -0.7972654809
 H         -2.8676686928        1.1807743321       -0.1066162950
 H         -1.3252003738        1.1237000388       -0.9871624478
 H         -1.6517742538        0.1619764478        1.6351139625
 C          2.1330636537        0.9077138400       -0.7051956930
 C          2.2584314773       -0.3138184880        0.1999665612
 O          1.0526748611       -1.0251800344        0.3152095101
 H          3.0919140537        1.4118218231       -0.7910755713
 H          1.4056028719        1.6035487805       -0.2903788944
 H          1.8027046245        0.6063286389       -1.6968168195
 H          2.6103230315        0.0016184435        1.1946405942
 H          2.9848719417       -1.0200188650       -0.2118129657
 H          0.3613373435       -0.3940104647        0.5834969729


