  34
        -57.92473363
 C          3.9864468852       -0.2827949842       -0.6785409734
 C          3.0291857929        0.7535969900       -0.0836362226
 C          2.4272676347        0.2484886019        1.2309441472
 Cl         1.5666001426       -1.2870231223        1.0191573298
 C          3.7741909115        2.0655992946        0.1971965428
 Cl         5.1057368774        1.8479765758        1.3582667100
 C          1.9274448566        1.0279317818       -1.1126641511
 Cl         0.7744549769        2.2688085365       -0.5597123465
 H          4.4230362403        0.0907165690       -1.6013036462
 H          3.4594043806       -1.2078864971       -0.8954273607
 H          4.7892167822       -0.4942405499        0.0229516340
 H          1.7045682655        0.9643966568        1.6238283077
 H          3.2116494586        0.0686381648        1.9655419486
 H          3.1039655117        2.8117171360        0.6237383055
 H          4.2181852587        2.4516598380       -0.7204344362
 H          1.3458485234        0.1260646315       -1.3043212752
 H          2.3542718201        1.3935856988       -2.0460332509
 C         -3.0975202173       -2.0924113336        1.2109530312
 C         -2.5765121104       -1.1752002366        0.1015199349
 C         -3.7338520499       -0.6355023153       -0.7444534619
 Cl        -4.6506977189       -1.9433174044       -1.5300366441
 C         -1.8140592026        0.0089786951        0.7079366501
 Cl        -2.8456701671        1.0056435055        1.7598881617
 C         -1.6066050750       -1.9887555819       -0.7614126943
 Cl        -0.9001227908       -1.0293356612       -2.0797742849
 H         -3.7509074934       -1.5344547545        1.8761463915
 H         -2.2692629272       -2.4912644930        1.7913075628
 H         -3.6584806066       -2.9202210126        0.7863848022
 H         -3.3631115571        0.0114483888       -1.5401856847
 H         -4.4375511712       -0.0869865832       -0.1197538705
 H         -1.4300977473        0.6703945568       -0.0682156682
 H         -0.9918651573       -0.3535435791        1.3241901832
 H         -2.1291900050       -2.8222350348       -1.2304201002
 H         -0.7732083702       -2.3564894783       -0.1634385299
