  34
        -57.92432333
 C          4.5117760791       -0.3410506458        0.6287860871
 C          3.2140049053       -0.0990392436       -0.1469012274
 C          2.1709061537        0.5788133814        0.7471361831
 Cl         1.7248121584       -0.4401184689        2.1377186833
 C          3.4754842119        0.8021555586       -1.3612142859
 Cl         4.1159776567        2.3929292143       -0.8868941568
 C          2.7081840065       -1.4577074634       -0.6420081483
 Cl         1.2390949818       -1.3228769594       -1.6285035581
 H          4.9282553290        0.6070787588        0.9573484714
 H          5.2452423094       -0.8420058154        0.0017254977
 H          4.3192050980       -0.9575298371        1.5024178961
 H          1.2528627162        0.7816240238        0.1947846376
 H          2.5676580816        1.5086805582        1.1518725526
 H          2.5548724057        0.9899063947       -1.9140246440
 H          4.2168453148        0.3487894752       -2.0198374756
 H          2.4587005620       -2.0964558410        0.2050380356
 H          3.4562859029       -1.9453629439       -1.2672013980
 C         -3.2925556655       -1.6767372357       -0.9022107540
 C         -2.6385693684       -0.4976872806       -0.1771984517
 C         -3.6797862184        0.3019325510        0.6120632864
 Cl        -4.9590922541        0.9522628450       -0.4407412806
 C         -1.5667278551       -1.0033229448        0.7964311920
 Cl        -2.2400370513       -2.0966326241        2.0266250068
 C         -1.9677544071        0.3845738096       -1.2347301843
 Cl        -1.0850607543        1.7554291166       -0.5231142367
 H         -2.5465762495       -2.2352841099       -1.4620384302
 H         -4.0548965469       -1.3227916264       -1.5904332728
 H         -3.7573231767       -2.3435736372       -0.1812316743
 H         -3.2167618479        1.1554571660        1.1083746658
 H         -4.1687135740       -0.3341581555        1.3487366782
 H         -1.1043958741       -0.1775619572        1.3361072248
 H         -0.8044016593       -1.5652536849        0.2575796832
 H         -2.7193307909        0.8113467815       -1.8986347512
 H         -1.2414700608       -0.1882496125       -1.8102325313
