  34
        -57.92442487
 C          3.4890211032       -0.4621563743       -2.0443929236
 C          2.9412688943       -0.0778104042       -0.6675941228
 C          4.0793809946        0.3139448817        0.2803052729
 Cl         5.2337625985       -1.0201932871        0.5218990932
 C          1.9728210345        1.1051198992       -0.7950043396
 Cl         2.7622877052        2.5502906743       -1.4695443294
 C          2.1703814841       -1.2828589095       -0.1208747517
 Cl         1.4095430116       -0.9484624797        1.4518770954
 H          4.0171651273        0.3807133708       -2.4815140859
 H          2.6759136300       -0.7442601720       -2.7085212121
 H          4.1785007809       -1.2972354232       -1.9587801619
 H          3.6916849437        0.5769898217        1.2651235949
 H          4.6432621361        1.1509075275       -0.1291190202
 H          1.5767269459        1.3934814461        0.1783094638
 H          1.1540958128        0.8470748265       -1.4668178890
 H          2.8467960410       -2.1229182300        0.0355360856
 H          1.3708715377       -1.5664971075       -0.8040733102
 C         -1.6496264464        1.2485989340        0.6581126788
 C         -2.6165478648        0.0864812276        0.4166875103
 C         -3.7453785415        0.5053601732       -0.5310428123
 Cl        -4.6766098880        1.8780465230        0.1139701483
 C         -1.8717950639       -1.1076456131       -0.1911824317
 Cl        -1.1203538901       -0.7058802475       -1.7487076408
 C         -3.1834866786       -0.3466089363        1.7730691858
 Cl        -4.2697430389       -1.7534149616        1.6393057025
 H         -1.2377839652        1.5944720517       -0.2860725321
 H         -0.8333599510        0.9295489619        1.3010716145
 H         -2.1679230174        2.0773628579        1.1314615185
 H         -4.4508080076       -0.3135256445       -0.6756728624
 H         -3.3422754763        0.8239864056       -1.4919512407
 H         -2.5504935931       -1.9393950075       -0.3792682728
 H         -1.0689473503       -1.4247916392        0.4741712868
 H         -3.7695882258        0.4616655594        2.2091578341
 H         -2.3796915578       -0.6317247834        2.4512642183
