  9
        -11.39186743
 C         -1.2591157342        0.2891797981        0.0037291125
 C         -0.0038440775       -0.5674377200       -0.0491934425
 O          1.1209798047        0.2821883454        0.0434457848
 H         -2.1429927985       -0.3385262355       -0.0663341762
 H         -1.2543779265        0.9981504395       -0.8194258170
 H         -1.2848864569        0.8450978446        0.9367547366
 H          0.0224767678       -1.1333845813       -0.9922855591
 H         -0.0075711717       -1.2871947895        0.7828983135
 H          1.9234345423       -0.2476393678        0.0105262239
