  9
        -11.39033604
 C         -1.2707285131        0.2778114230        0.0170723994
 C         -0.0011997572       -0.5643637938       -0.0343578233
 O          1.1407758803        0.2707942497        0.0573189545
 H         -1.2788185719        0.8690536849        0.9282347146
 H         -2.1458920333       -0.3660907450       -0.0003665330
 H         -1.3075722234        0.9542653984       -0.8332370864
 H          0.0147412002       -1.1521489937       -0.9581732226
 H          0.0129335792       -1.2623841303        0.8140510011
 H          1.7533240281        0.0735216792       -0.6544017743
