%nprocshared=4
%mem=8000mb
%chk=9.chk
%mem=8000mb
#T wB97XD/def2svpp opt=tight freq int(grid=ultrafine) scf=(verytight,qc)

comment

1 2
O       -0.000927    1.643373   -0.542145
C        0.191025    1.135229    0.772722
C       -0.011607   -0.374791    0.746871
C       -1.472397   -0.750387    0.462807
O       -1.900789   -0.379974   -0.819949
C        0.932035   -1.050902   -0.264047
O        2.237846   -0.528912   -0.247329
H        0.052832    2.607729   -0.528496
H       -0.528946    1.595375    1.478490
H        1.213146    1.363818    1.127522
H        0.239408   -0.730908    1.763018
H       -2.115428   -0.299083    1.250106
H       -1.595938   -1.845255    0.540260
H       -1.519505    0.492223   -1.016551
H        0.484252   -0.982512   -1.271570
H        1.013944   -2.122603   -0.017209
H        2.232857    0.290425   -0.760300


