  34
        -57.92469144
 C          3.5152198319        0.2812974633       -1.9286228259
 C          2.7749393323        0.0859225335       -0.6029842251
 C          3.6864452299        0.4225302552        0.5811719540
 Cl         5.1275432783       -0.6208437314        0.6287039068
 C          1.5386398071        0.9912890734       -0.5486626838
 Cl         1.9621165051        2.7168807484       -0.6407698793
 C          2.3115859984       -1.3729623210       -0.5332890690
 Cl         1.4248690449       -1.7331777132        0.9620367519
 H          4.4090974966       -0.3354529984       -1.9583223341
 H          3.8071803719        1.3221799592       -2.0393154130
 H          2.8742436901        0.0096655129       -2.7637515359
 H          3.1618227092        0.2793639092        1.5263854455
 H          4.0419118458        1.4494182188        0.5074254484
 H          0.9911960827        0.8543731352        0.3836408592
 H          0.8864347716        0.7816880448       -1.3960462604
 H          3.1716649108       -2.0421121672       -0.5529784714
 H          1.6367765283       -1.6043193302       -1.3570815490
 C         -3.6910477401       -1.8883828321       -0.0038196048
 C         -3.0672705946       -0.5170264818        0.2694727126
 C         -2.4280841183        0.0539453386       -0.9999212832
 Cl        -1.1932366866       -1.0315871012       -1.6658944490
 C         -4.1399541472        0.4664720443        0.7569066131
 Cl        -5.4329488521        0.7002357116       -0.4437841294
 C         -2.0182803145       -0.6848499942        1.3738974351
 Cl        -1.2695665695        0.8618281352        1.8419147935
 H         -4.4471462883       -1.8053699356       -0.7800728854
 H         -4.1607115526       -2.2771682091        0.8961591837
 H         -2.9318929524       -2.5939090597       -0.3301031791
 H         -1.9350126367        1.0033065723       -0.7885585144
 H         -3.1792166449        0.1884677492       -1.7775608013
 H         -3.7098904111        1.4489381741        0.9506833781
 H         -4.6165890068        0.0883980760        1.6614216558
 H         -1.2076256158       -1.3326879811        1.0397255443
 H         -2.4703012381       -1.0965362870        2.2758407579
