  34
        -57.92466504
 C          4.1338607413       -0.3122984502        0.1096532725
 C          3.0213301226        0.7045662080       -0.1598677977
 C          2.1746989204        0.9312387639        1.0963327736
 Cl         1.4568639510       -0.5777211649        1.6929390509
 C          3.6234543948        2.0495184276       -0.5889193414
 Cl         4.6845338307        2.7408622977        0.6615678253
 C          2.1567926070        0.1676627920       -1.3054557092
 Cl         0.8628810343        1.2996502420       -1.7707436595
 H          3.7113038368       -1.2709208398        0.3977116007
 H          4.7752199363        0.0417833205        0.9123730102
 H          4.7409280966       -0.4551529563       -0.7807236778
 H          1.3502220130        1.6135055263        0.8870794726
 H          2.7900381471        1.3263860617        1.9039310384
 H          2.8414848716        2.7845611612       -0.7787097559
 H          4.2339826398        1.9224646732       -1.4830305565
 H          1.6657707269       -0.7610420719       -1.0142289043
 H          2.7591620940        0.0014728836       -2.1981243502
 C         -3.4953545620       -1.1543797976        1.7490800896
 C         -2.6211841338       -1.0021839499        0.5016377191
 C         -3.4854880971       -0.9536763476       -0.7621052091
 Cl        -4.4332057593       -2.4447461252       -0.9766376711
 C         -1.7964826642        0.2875968844        0.5862161860
 Cl        -2.8218380414        1.7400501726        0.6566938123
 C         -1.6564867031       -2.1918798332        0.4542263616
 Cl        -0.5905732318       -2.1456974875       -0.9635468637
 H         -4.1481175379       -0.2915256707        1.8505774372
 H         -2.8758035020       -1.2277142998        2.6394972478
 H         -4.1091570095       -2.0477283669        1.6751136878
 H         -2.8646351868       -0.8431924199       -1.6517641360
 H         -4.1978591929       -0.1318664720       -0.7040875395
 H         -1.1553927333        0.4013275712       -0.2877288595
 H         -1.1919997614        0.2851982692        1.4929053338
 H         -2.2142837802       -3.1262297956        0.3926298013
 H         -1.0075104136       -2.1990110293        1.3297424980
