  34
        -57.92433679
 C          3.6120862696        0.7980382162       -1.7614216958
 C          2.7487272906        0.2480995007       -0.6231499752
 C          3.6031697102       -0.0361746661        0.6160064371
 Cl         4.8700462877       -1.2423808073        0.2874295452
 C          1.6575694998        1.2586525062       -0.2496688372
 Cl         2.3358542736        2.8018584592        0.3185943560
 C          2.0747829063       -1.0343229488       -1.1222274220
 Cl         1.0318057098       -1.7771110218        0.1067645460
 H          4.0627324176        1.7402957316       -1.4616607078
 H          3.0060658000        0.9693673236       -2.6477039729
 H          4.4042855898        0.0971333944       -2.0091179506
 H          2.9904808916       -0.4345536458        1.4253704923
 H          4.1077515730        0.8708523118        0.9459536094
 H          1.0283940680        0.8804997003        0.5557134800
 H          1.0448945236        1.4865933125       -1.1215650285
 H          2.8279371004       -1.7786443315       -1.3807518989
 H          1.4402222233       -0.8278560352       -1.9838674702
 C         -4.2170973702        1.1159882043        0.7624166005
 C         -3.1706443440        0.2422984262        0.0648924650
 C         -2.1638489525       -0.3101140525        1.0786292873
 Cl        -1.2975207489        0.9903251187        1.9287625649
 C         -3.8479533118       -0.9390917377       -0.6428270708
 Cl        -4.7518539163       -1.9699195256        0.4912842688
 C         -2.4643330247        1.1071959471       -0.9843502589
 Cl        -1.3016213401        0.1836518461       -1.9606962383
 H         -4.9337608786        1.5020748385        0.0418122261
 H         -3.7382508298        1.9536529471        1.2618132515
 H         -4.7540426351        0.5304440008        1.5035454560
 H         -1.4064580405       -0.9223884295        0.5880315257
 H         -2.6758580447       -0.8961308569        1.8406089116
 H         -3.1111360963       -1.5803177142       -1.1266050032
 H         -4.5656723454       -0.5794368852       -1.3806308350
 H         -1.9029575977        1.9038126185       -0.4963037217
 H         -3.1844850221        1.5341685977       -1.6822950399
