  34
        -57.92436591
 C          2.9189692114        0.9118953649        1.8597387806
 C          3.0549533846        0.0927854426        0.5735566006
 C          2.7987601742        0.9672527759       -0.6576164647
 Cl         1.1757130837        1.6728873653       -0.6508227027
 C          4.4676637767       -0.4954522173        0.4612763096
 Cl         5.7195851571        0.7674688612        0.3798827559
 C          2.0527050726       -1.0644021440        0.6412323078
 Cl         2.0865563483       -2.0826028107       -0.8224481094
 H          3.6479085221        1.7179920372        1.8675030224
 H          3.0888537419        0.2822124882        2.7291331845
 H          1.9230564796        1.3398473539        1.9344936826
 H          2.8796343064        0.3790955696       -1.5723278732
 H          3.5010362940        1.7999884884       -0.6862737805
 H          4.5679153430       -1.0976596601       -0.4416181846
 H          4.6936866950       -1.1041762490        1.3366800706
 H          1.0371361857       -0.6837283324        0.7392623015
 H          2.2775268139       -1.7174734755        1.4838060236
 C         -1.5275919027       -1.0179497276       -0.9663879555
 C         -2.5609508213       -0.1304977427       -0.2681916535
 C         -3.7456737148       -0.9648090086        0.2294823782
 Cl        -4.5588561719       -1.8230864803       -1.1000918021
 C         -1.9296785027        0.5934578921        0.9274539803
 Cl        -1.2661135131       -0.5393906566        2.1264528504
 C         -3.0271123862        0.9280186520       -1.2730999830
 Cl        -4.1865806847        2.0787222929       -0.5615900832
 H         -1.1710413017       -1.7859611642       -0.2852818330
 H         -0.6820345023       -0.4220827808       -1.2988990551
 H         -1.9712522548       -1.5056889377       -1.8295837660
 H         -4.4965106941       -0.3274840020        0.6975583752
 H         -3.4089539903       -1.7240590287        0.9347421442
 H         -2.6672680298        1.2022236587        1.4498521452
 H         -1.1025307199        1.2198156350        0.5932002448
 H         -3.5332415479        0.4517988356       -2.1122426350
 H         -2.1807558261        1.5138988427       -1.6306596494
