  34
        -57.92422786
 C          1.9536325748       -0.7922478278       -1.1473319404
 C          2.7651630287       -0.5763115876        0.1325064629
 C          3.9718063649        0.3298715689       -0.1329276281
 Cl         5.0531135385       -0.3517411852       -1.3715770907
 C          1.8892267564        0.0648663373        1.2149919719
 Cl         1.2461998806        1.6412991107        0.7091444342
 C          3.2220128788       -1.9483498809        0.6396523861
 Cl         4.1132469152       -1.8439605208        2.1799177991
 H          1.6181272740        0.1625891212       -1.5426105145
 H          1.0838090854       -1.4097370370       -0.9396760211
 H          2.5623221362       -1.2826629749       -1.9012737707
 H          4.5679891652        0.4525592077        0.7718647000
 H          3.6482142305        1.3031319805       -0.5009080241
 H          2.4576689431        0.2398163999        2.1282542806
 H          1.0318712111       -0.5736492728        1.4267939665
 H          3.8961614140       -2.4086540340       -0.0819274724
 H          2.3644302282       -2.5974149922        0.8145976641
 C         -1.6614112513        0.6583511111       -1.6086812246
 C         -2.7239372529        0.5608707472       -0.5110897983
 C         -3.8487501124       -0.3939868813       -0.9245756681
 Cl        -4.6487998553        0.1338145714       -2.4240134072
 C         -2.0955081844        0.0559943209        0.7928923877
 Cl        -1.3713647341       -1.5547498749        0.6070539264
 C         -3.2757167182        1.9683585776       -0.2605932793
 Cl        -4.4748829599        2.0060699938        1.0579930027
 H         -1.2511514906       -0.3253084406       -1.8199070095
 H         -0.8538964627        1.3130606460       -1.2919184270
 H         -2.0978400492        1.0529717228       -2.5215198999
 H         -4.6198635505       -0.4373819891       -0.1547165201
 H         -3.4550594397       -1.3922054974       -1.1141890852
 H         -2.8423704248       -0.0282987798        1.5821573775
 H         -1.2970009086        0.7281946722        1.1063921738
 H         -3.7798382940        2.3372315010       -1.1532122570
 H         -2.4739535418        2.6497200917        0.0226059277
