  34
        -57.92424498
 C          4.1382536688        1.2947085826       -0.7046390651
 C          2.8477931568        0.4916535535       -0.5228655265
 C          3.0466609712       -0.6310664867        0.5001877524
 Cl         4.3124264956       -1.7739788495       -0.0063019832
 C          1.7137508453        1.4006353455       -0.0356644861
 Cl         2.0820268894        2.1595244351        1.5297114631
 C          2.4534932203       -0.0849703544       -1.8869791383
 Cl         0.9387477967       -1.0079676920       -1.8265018289
 H          3.9970619050        2.0801218925       -1.4432346465
 H          4.9449484429        0.6455188933       -1.0335056147
 H          4.4244188607        1.7535783024        0.2379460255
 H          2.1297141254       -1.2074516796        0.6251932175
 H          3.3564665241       -0.2205254162        1.4602641663
 H          0.7990597951        0.8277510998        0.1058835516
 H          1.5390038641        2.2094962209       -0.7451214803
 H          3.2227598425       -0.7714686154       -2.2406945659
 H          2.3025398984        0.7123876580       -2.6147660954
 C         -3.5996661182        0.1073451182        1.9947842377
 C         -2.9558513029        0.1438136862        0.6058778381
 C         -1.9196270211       -0.9748953282        0.4595640545
 Cl        -0.6231882808       -0.8404584375        1.6684020387
 C         -4.0233787753       -0.0380320308       -0.4814155347
 Cl        -4.8810138990       -1.5891892596       -0.3266904507
 C         -2.3026140525        1.5186557940        0.4251219288
 Cl        -1.5890605643        1.7278258704       -1.1943628100
 H         -2.8455561994        0.2391383828        2.7657573903
 H         -4.0929781038       -0.8483126095        2.1501756462
 H         -4.3393861523        0.8980468867        2.0924383443
 H         -1.4405585648       -0.9407646499       -0.5195145094
 H         -2.3868178097       -1.9474454144        0.6089166656
 H         -3.5744773689       -0.0263203250       -1.4744376180
 H         -4.7771853628        0.7460942122       -0.4079155084
 H         -1.4964779342        1.6513818454        1.1464896534
 H         -3.0381578436        2.3134069857        0.5461892698
