  19
        -32.07344175
 C          0.3602574949       -1.5005936921       -0.7516097354
 C         -0.1423903611       -0.1626046570       -0.1912532830
 C         -0.9240430191        0.6326236519       -1.2629089503
 O         -2.1131968547        0.0102417096       -1.6594910028
 C         -1.0455261591       -0.4077682445        1.0385298671
 O         -0.4169553823       -1.1464779525        2.0461448803
 C          1.0730795308        0.6438754115        0.2264756540
 O          1.7965882963        1.0666745063       -0.8130442323
 O          1.3923657163        0.8795386134        1.3639414222
 H          0.8948349464       -2.0426979775        0.0251525355
 H          1.0236711307       -1.3378946222       -1.5981270539
 H         -0.4819495405       -2.1154984378       -1.0617342922
 H         -0.2660996949        0.8121349419       -2.1236394540
 H         -1.2259799017        1.5983148128       -0.8486695382
 H         -1.9001081602       -0.8284290002       -2.0841333159
 H         -1.9186286296       -0.9853976377        0.7272804207
 H         -1.3912444241        0.5633148927        1.4199288326
 H          0.3213674605       -0.6144793839        2.3755374022
 H          2.5733677724        1.5606189812       -0.5032978361
