  19
        -32.07489734
 C          0.6445169324       -1.5518817969       -1.0052746985
 C         -0.1266433906       -0.3977546787       -0.3611561740
 C         -1.1780003617        0.1593929018       -1.3461793777
 O         -1.9429781228        1.2039174682       -0.8168505006
 C         -0.8422069121       -0.8816986782        0.9278514962
 O         -0.0173364187       -1.5820454667        1.8122030973
 C          0.8260120434        0.7175774869        0.0222788960
 O          1.8332926243        0.3055422972        0.8056010438
 O          0.7086302164        1.8745089988       -0.2932601237
 H          1.3343339176       -1.9900382037       -0.2891586590
 H          1.2031175175       -1.2033333140       -1.8710607266
 H         -0.0550294507       -2.3195715720       -1.3255249798
 H         -1.8836405374       -0.6344805758       -1.6018656799
 H         -0.6636175760        0.4789027543       -2.2639040666
 H         -1.3467465276        1.9500978100       -0.6591975784
 H         -1.6321658277       -1.5793390794        0.6406258862
 H         -1.3118943118       -0.0157426322        1.4171804638
 H          0.7689242375       -1.0523732982        1.9966107795
 H          2.4138998057        1.0520410122        1.0263946930
