  19
        -32.07334650
 C          0.3280755697       -1.4941758560       -0.7961718477
 C         -0.1469798056       -0.1686105238       -0.1891528903
 C         -0.9304663685        0.6451325995       -1.2482371099
 O         -2.0535087534       -0.0248898726       -1.7465662362
 C         -1.0350128526       -0.4429102896        1.0470094357
 O         -0.3710256425       -1.1302010408        2.0669670125
 C          1.0658203537        0.6388013633        0.2323221047
 O          1.8053713364        1.0422461806       -0.8012728423
 O          1.3645164221        0.9019929596        1.3708235511
 H          1.1171893229       -1.3215849741       -1.5229934065
 H         -0.5109022368       -1.9711607615       -1.2970379209
 H          0.6927058342       -2.1504636767       -0.0095117059
 H         -0.2837038489        0.8169588543       -2.1110195067
 H         -1.2120216922        1.6186669449       -0.8203586055
 H         -2.7095144212       -0.1177017882       -1.0475639458
 H         -1.8685162143       -1.0885859595        0.7566201068
 H         -1.4352726596        0.5135622918        1.4192887327
 H          0.3608990395       -0.5705841273        2.3654254120
 H          2.5804146242        1.5367863694       -0.4885090133
