  19
        -32.07252087
 C          0.4758362564       -1.1528636032       -1.5153862538
 C         -0.1037687438       -0.4854679997       -0.2637084640
 C         -1.5054361138        0.0916653250       -0.5656911447
 O         -1.5068034097        1.0211674022       -1.6106235267
 C         -0.1955902948       -1.4923183430        0.8909803732
 O         -0.6011710576       -0.8050909176        2.0537108151
 C          0.8277855709        0.6453256751        0.1452700005
 O          1.9691280871        0.2078186667        0.6767475739
 O          0.6073639976        1.8184915016       -0.0150821499
 H         -0.1111501405       -2.0337637660       -1.7638168750
 H          1.5089943716       -1.4494982102       -1.3526042055
 H          0.4256554925       -0.4586332078       -2.3507802432
 H         -1.9031783677        0.5315028959        0.3581289624
 H         -2.1634673179       -0.7225691642       -0.8807311578
 H         -0.9531160593        1.7646538747       -1.3292307376
 H          0.7859974940       -1.9609487806        1.0403055285
 H         -0.9234963016       -2.2722208183        0.6257733389
 H         -0.6606235861       -1.4294723449        2.7838136663
 H          2.5295486557        0.9602049883        0.9259322853
