  16
        -38.92977134
 C         -1.7176846109       -0.0003758345        1.6411663239
 C         -2.2270006080       -0.0001218997        0.2221994816
 Cl        -1.6554000572        1.4420652846       -0.6511118138
 Cl        -1.6567068830       -1.4427848851       -0.6512221340
 Cl        -4.0089872335        0.0008298941        0.1870980038
 H         -0.6298639416       -0.0017035468        1.6412549663
 H         -2.0761996285       -0.8867427079        2.1598697927
 H         -2.0740643818        0.8870864423        2.1594677273
 C          1.7181747912       -0.0004706779       -1.6413158557
 C          2.2271003572       -0.0000416609       -0.2222013006
 Cl         1.6566749477        1.4431432509        0.6503033692
 Cl         1.6551217887       -1.4417595074        0.6516520228
 Cl         4.0090475345       -0.0010649915       -0.1866524878
 H          0.6303422736        0.0008923689       -1.6416900099
 H          2.0746701902       -0.8882178510       -2.1590807318
 H          2.0768757414        0.8856304567       -2.1603734495
