  30
        -62.81595680
 C         -2.1117695507       -1.2264033773       -1.2328666460
 C         -2.4399290828       -0.4623408232        0.0365744362
 C         -2.3948365441       -1.2977360548        1.2999622187
 N         -1.5228125789        0.7186429135        0.1998403021
 O         -1.6384068423        1.3510567161        1.2144944089
 O         -0.7304519759        0.9446081169       -0.6785038513
 N         -3.8285186158        0.1197021213       -0.1488352891
 O         -4.7526002842       -0.5797003581        0.1545046166
 O         -3.8803349540        1.2191173102       -0.6333596690
 H         -1.1244884731       -1.6750232852       -1.1548791803
 H         -2.1231356066       -0.5649308633       -2.0974447451
 H         -2.8405532636       -2.0199048172       -1.3797616454
 H         -1.4189944450       -1.7673393673        1.3945754121
 H         -3.1635583846       -2.0648523250        1.2573453047
 H         -2.5684731812       -0.6718559755        2.1733645520
 C          2.1046711197        1.2130371083        1.2442768967
 C          2.4372358745        0.4619297287       -0.0316641848
 C          2.3864173667        1.3066614155       -1.2885531655
 N          3.8286926219       -0.1149211036        0.1495702729
 O          4.7495499414        0.5787574664       -0.1753831020
 O          3.8852939711       -1.2056149944        0.6531036074
 N          1.5266103502       -0.7224570830       -0.2054031193
 O          0.7189146416       -0.9465852696        0.6594052292
 O          1.6616164133       -1.3578032876       -1.2157951995
 H          2.8266875527        2.0116789633        1.3966349129
 H          2.1236299203        0.5443965939        2.1032245419
 H          1.1133870975        1.6538747651        1.1725191936
 H          1.4065151957        1.7681788705       -1.3813734343
 H          2.5671697297        0.6888712279       -2.1662772440
 H          3.1480507852        2.0804027442       -1.2394548440
