  30
        -62.81492105
 C         -1.5603436582       -0.4043389398       -1.9599963807
 C         -1.9461262002        0.5653759958       -0.8615784758
 C         -1.2430306454        1.9074244641       -0.9156688222
 N         -3.4364461116        0.8405423509       -0.9038054084
 O         -4.0214427689        0.5796715465       -1.9163110489
 O         -3.8960062907        1.3457622800        0.0871167073
 N         -1.6977846322       -0.1131107836        0.4613988515
 O         -0.8239969944        0.3267464327        1.1610071577
 O         -2.3876534120       -1.0654092987        0.6997135033
 H         -1.7815778421        0.0272662168       -2.9323768122
 H         -2.1195860052       -1.3322213711       -1.8545733857
 H         -0.4987399549       -0.6293984550       -1.9000461466
 H         -1.4347754569        2.3879393975       -1.8719301511
 H         -0.1684789379        1.7814891088       -0.8005143426
 H         -1.5991443975        2.5530202735       -0.1144750465
 C          4.1136097733       -0.8361037507        1.0794766819
 C          2.7018831740       -0.3088222324        0.9169871178
 C          2.2001062974        0.5120500720        2.0899694441
 N          2.5843451513        0.4689556708       -0.3751871439
 O          1.9400795859        1.4829719136       -0.3582614895
 O          3.1362371509       -0.0051277663       -1.3325804181
 N          1.7478201687       -1.4740921327        0.7507240788
 O          1.8802783609       -2.3930149249        1.5029749002
 O          0.9151951070       -1.3592832694       -0.1128559674
 H          4.1194033656       -1.6215707481        1.8320878425
 H          4.7798884054       -0.0387328196        1.3987595455
 H          4.4791351621       -1.2466789416        0.1395006882
 H          2.7985937144        1.4131289415        2.1982646868
 H          2.2790684494       -0.0769498550        3.0003722557
 H          1.1604724392        0.8001575749        1.9461967009
