  30
        -62.81519932
 C         -2.1210208109       -1.4880133972        0.7825597151
 C         -2.4679738069       -0.4287420888       -0.2460075415
 C         -2.2897145413       -0.8762713212       -1.6824347084
 N         -3.9047877476       -0.0139741512        0.0080321609
 O         -4.0657033147        0.7757690250        0.9011541945
 O         -4.7538834381       -0.5377729309       -0.6542839238
 N         -1.6446343838        0.8124777020       -0.0287034833
 O         -1.8816340934        1.7374414014       -0.7569084976
 O         -0.7993027790        0.7885413491        0.8286394283
 H         -2.2452581449       -1.0994038455        1.7918097299
 H         -1.0876952092       -1.7969612795        0.6445202615
 H         -2.7662402130       -2.3530597867        0.6507014938
 H         -2.4422150022       -0.0400186028       -2.3627165796
 H         -3.0140516416       -1.6521382230       -1.9166634692
 H         -1.2866908091       -1.2732718648       -1.8198245513
 C          2.3621656625        1.6777945262        0.7060534202
 C          2.4514295374        0.1722750733        0.5628445262
 C          1.9691274495       -0.5972138478        1.7777230394
 N          1.6831791257       -0.2384590135       -0.6649768892
 O          0.7957464380       -1.0420070302       -0.5353951662
 O          2.0052917357        0.2931761150       -1.6924391909
 N          3.8849192985       -0.2525644974        0.3072592475
 O          4.7511638947        0.4299846751        0.7741085754
 O          4.0212264461       -1.2798450638       -0.3037132120
 H          1.3536618149        1.9575099321        1.0011025651
 H          2.6088565611        2.1643235732       -0.2361647328
 H          3.0620139866        2.0149931440        1.4663361815
 H          0.9344325928       -0.3326527269        1.9816990751
 H          2.5752096252       -0.3360926447        2.6417021043
 H          2.0349992088       -1.6700226032        1.6052135120
