  30
        -62.81490640
 C         -1.7794230420       -1.7523355706       -0.1089944073
 C         -2.1024872617       -0.3937198804        0.4784906490
 C         -1.6007865319       -0.1713098331        1.8918365971
 N         -1.5531738864        0.6569432409       -0.4528629913
 O         -2.0651835570        0.7165232455       -1.5361470882
 O         -0.6413389848        1.3340866294       -0.0571891291
 N         -3.6026411364       -0.1743666595        0.4976685696
 O         -3.9551044174        0.9650165529        0.6585624256
 O         -4.3071134413       -1.1383034342        0.3978495785
 H         -0.7029409169       -1.8959147242       -0.1449279683
 H         -2.1735756343       -1.8268659635       -1.1207732484
 H         -2.2257332499       -2.5356293111        0.4976617698
 H         -0.5147144891       -0.2285940755        1.9253861496
 H         -2.0084175347       -0.9315705854        2.5536425625
 H         -1.9025623602        0.8118522197        2.2493952746
 C          2.4718322244        1.8150087545        0.3207976333
 C          2.8311142081        0.4061765483       -0.1118347490
 C          4.3014589954        0.1979188765       -0.4156115105
 N          2.3686346046       -0.6066165706        0.9110568925
 O          2.7431448928       -1.7372541910        0.7436805221
 O          1.6547627150       -0.2205104656        1.7969391080
 N          2.0134215800        0.1009564820       -1.3508727466
 O          1.0083738350       -0.5401461331       -1.1765729469
 O          2.4135585933        0.5434602235       -2.3862320243
 H          2.9624912816        2.0531830402        1.2611835648
 H          1.3964899016        1.9177034269        0.4549170900
 H          2.8013140602        2.5196339765       -0.4387020819
 H          4.9137284570        0.5995123974        0.3878583156
 H          4.5537886881        0.7118299832       -1.3406517538
 H          4.5208109399       -0.8624359702       -0.5316453413
