  30
        -62.81558586
 C         -1.7415244393       -1.5414326227       -0.3850643883
 C         -2.0525214010       -0.3374042285        0.4825577113
 C         -1.7632053142       -0.5403357355        1.9581550920
 N         -1.2552990329        0.8585277105        0.0426186838
 O         -1.7300381549        1.9354836316        0.2693509566
 O         -0.1730343688        0.6481864839       -0.4465269988
 N         -3.5084932211        0.0258166271        0.2650571940
 O         -3.7913616276        0.3739993944       -0.8505669623
 O         -4.2566914281       -0.1000289490        1.1929734146
 H         -0.6830289566       -1.7889094743       -0.3257965276
 H         -1.9950286481       -1.3360587060       -1.4240405006
 H         -2.3133330119       -2.4008694803       -0.0439357929
 H         -0.7166705433       -0.8086465869        2.0930783211
 H         -2.3832989201       -1.3435866192        2.3475707369
 H         -1.9813926288        0.3659598594        2.5207014589
 C          3.3288311931        1.2875305856       -0.9195993620
 C          2.8070089950       -0.0129832763       -0.3598046600
 C          3.8770658213       -1.0319581278        0.0112569671
 N          1.9936680737        0.2453761939        0.8866483741
 O          1.4543478734       -0.7066916051        1.3905093560
 O          1.9733021717        1.3678249018        1.3067719932
 N          1.8853308592       -0.6842261310       -1.3646271162
 O          1.3773818747       -1.7155343600       -1.0143867983
 O          1.7749875566       -0.1608828071       -2.4347747997
 H          3.9685683254        1.7790066546       -0.1915989494
 H          2.5024668067        1.9528002290       -1.1598007317
 H          3.8971440919        1.1018726477       -1.8268326617
 H          4.5403195679       -0.6221291757        0.7698787430
 H          4.4698519050       -1.2889099734       -0.8637573470
 H          3.4058209360       -1.9342567053        0.3991534727
