%chk=42.chk
%nprocshared=4
%mem=8000mb
#T wB97XD/def2svpp opt=tight freq int(grid=ultrafine) scf=(verytight,qc)

Comment gs min

0 1
 C         -2.3381312683       -1.4027696718       -1.1101595037
 C         -2.4916455093       -0.4651128284        0.0727467413
 C         -2.3946111047       -1.1504816465        1.4214708774
 N         -1.4845008603        0.6488649347       -0.0032969846
 O         -1.3047209897        1.2895604779        0.9985638135
 O         -0.9223139825        0.8281331977       -1.0518575281
 N         -3.8512564764        0.1954121090       -0.0491593545
 O         -4.7979192456       -0.4964195369        0.1997270596
 O         -3.8671288093        1.3409111861       -0.4125860494
 H         -1.3826355267       -1.9174287149       -1.0458279474
 H         -2.3749085024       -0.8551821243       -2.0500618211
 H         -3.1370799111       -2.1399499149       -1.0934083967
 H         -1.4577392917       -1.6975589644        1.4845078599
 H         -3.2261471712       -1.8412140214        1.5357679514
 H         -2.4265986386       -0.4183003483        2.2258905940
 C          1.9779359707        1.0324326153        1.3750361163
 C          2.4073253216        0.4441887236        0.0444827464
 C          2.2981875641        1.3895766857       -1.1355623422
 N          3.8389598555       -0.0313740997        0.2105124586
 O          3.9764113789       -1.0281666559        0.8701094714
 O          4.7038532238        0.6363128101       -0.2791316646
 N          1.6074769784       -0.7858148419       -0.2828047093
 O          0.6170651583       -1.0048873682        0.3679009835
 O          2.0030198432       -1.4458664169       -1.2043201900
 H          2.6017984574        1.8897177082        1.6165577352
 H          2.0720550990        0.2902771596        2.1662765388
 H          0.9424345355        1.3638737044        1.3343269396
 H          2.6462383096        0.9000786271       -2.0435011197
 H          2.9074350333        2.2721057556       -0.9604079222
 H          1.2625152513        1.6923062199       -1.2760922382


