  22
        -35.27314619
 C         -4.0213901217        0.2095366181        0.9409309849
 C         -3.4161369995       -0.0006664426       -0.4489793922
 C         -1.9140150637       -0.0785258232       -0.3288497010
 O         -1.4833230178       -1.2559356988        0.0395972302
 O         -1.1852719176        0.8758637134       -0.5331750696
 H         -3.6518626833        1.1338761271        1.3789912331
 H         -3.7584596779       -0.6182020967        1.5950430306
 H         -5.1042242657        0.2676996599        0.8685147572
 H         -3.6743602814        0.8333287580       -1.1014072319
 H         -3.7837482992       -0.9346474701       -0.8739328512
 H         -0.4824114542       -1.2863944521        0.1508572422
 C          4.1246928840        0.9939029199        0.0460069247
 C          3.3880507424       -0.3252635510        0.2237995111
 C          1.8896794719       -0.2175537822        0.0687412301
 O          1.4583429151        0.9539819459       -0.3104623342
 O          1.1571652477       -1.1698294591        0.2817259343
 H          5.1939982526        0.8402871812        0.1670931881
 H          3.7905279919        1.7199215753        0.7822878359
 H          3.9395774547        1.4040519089       -0.9428938363
 H          3.5816773022       -0.7531935824        1.2102323062
 H          3.7292618324       -1.0592124045       -0.5113024697
 H          0.4563824532        0.9832908562       -0.4103553115
