  22
        -35.27367981
 C         -4.0856536918        0.8402678037       -0.3744403580
 C         -3.3846101015       -0.4772754520       -0.0782608497
 C         -1.8873862083       -0.3216786567        0.0351417393
 O         -1.2786611407       -1.4479784633        0.3120125591
 O         -1.3093534106        0.7381911068       -0.1161721178
 H         -5.1584113623        0.6864012392       -0.4533915867
 H         -3.7202637689        1.2607820142       -1.3076332697
 H         -3.8902107052        1.5584632264        0.4175349796
 H         -3.5779569412       -1.2097017605       -0.8653288256
 H         -3.7410816331       -0.9107007335        0.8587427650
 H         -0.2806536211       -1.3393324170        0.3866839296
 C          3.9873143522        0.1756074172       -1.0188278120
 C          3.4120321491        0.2053205202        0.3991457537
 C          1.9109548368        0.0701364816        0.3272478074
 O          1.3010005444        1.1962866003        0.0648235164
 O          1.3354518121       -0.9928002847        0.4749071423
 H          3.5840005099        0.9969818053       -1.6060803716
 H          3.7369998297       -0.7623140713       -1.5092255368
 H          5.0693289303        0.2706364872       -0.9817242858
 H          3.6574960754        1.1535483303        0.8772384226
 H          3.8124572518       -0.6224796005        0.9841966319
 H          0.3036411802        1.0871364011       -0.0165716342
