  22
        -35.27313742
 C         -4.0458759354        0.1064441556       -0.9266465760
 C         -3.4118715502        0.0409373351        0.4641760089
 C         -1.9110825837       -0.0489924702        0.3334113028
 O         -1.4954731845       -1.2145394837       -0.0867465782
 O         -1.1695802594        0.8853119498        0.5804805928
 H         -3.6953709697        0.9854508448       -1.4627980236
 H         -5.1276581905        0.1624291524       -0.8387125986
 H         -3.7859445038       -0.7800784861       -1.4995926188
 H         -3.7683091187       -0.8468238117        0.9876622358
 H         -3.6607077382        0.9329553011        1.0388741935
 H         -0.4953026587       -1.2512981805       -0.2018403694
 C          4.1505047366        0.9325410619        0.0959470911
 C          3.3789673924       -0.3116874205       -0.3173640809
 C          1.8867507701       -0.2060940363       -0.1103191358
 O          1.4721028403        0.9502633267        0.3291647010
 O          1.1432076403       -1.1442739173       -0.3467230347
 H          3.8171978260        1.7953151973       -0.4741285440
 H          5.2128923097        0.7852572204       -0.0808633816
 H          3.9976801219        1.1436614780        1.1508362826
 H          3.7203525843       -1.1868462737        0.2409178865
 H          3.5376320969       -0.5316277187       -1.3764236529
 H          0.4723842433        0.9823661731        0.4484906957
