  22
        -35.27301657
 C         -4.1588702223       -0.7836660678        0.5001346859
 C         -3.4010231738        0.3959565700       -0.0958698695
 C         -1.9023885887        0.2091748697       -0.0942607181
 O         -1.5093391034       -1.0304535738       -0.2089504035
 O         -1.1365399569        1.1550601176       -0.0165349477
 H         -3.8884398234       -0.9221375220        1.5439589652
 H         -3.9241004972       -1.6967428317       -0.0393620894
 H         -5.2293459451       -0.6048854772        0.4400616999
 H         -3.6243265565        1.3229715958        0.4344338396
 H         -3.6933918897        0.5350703915       -1.1409200561
 H         -0.5059106469       -1.1173352603       -0.2254257962
 C          4.1383562076        0.5154853067        0.7600920974
 C          3.4059565789       -0.3129202381       -0.2915255250
 C          1.9072140768       -0.1467135255       -0.2089240531
 O          1.5138312877        1.0947537209       -0.1074982741
 O          1.1432019612       -1.0952655077       -0.2537970400
 H          3.8665188907        0.1870560500        1.7604481614
 H          3.8805769809        1.5659009573        0.6578063197
 H          5.2126057979        0.4030506486        0.6390291377
 H          3.6370737839       -1.3738576600       -0.1906349156
 H          3.7087344883        0.0130563063       -1.2899807360
 H          0.5111111207        1.1799699572       -0.0632581155
