  22
        -35.27314110
 C         -4.0420975070        0.2311604636       -0.8861387358
 C         -3.4103074718       -0.0293887977        0.4831771768
 C         -1.9100695708       -0.0938711983        0.3342331417
 O         -1.4837622755       -1.2385315517       -0.1300035406
 O         -1.1793529327        0.8435798181        0.6005122172
 H         -5.1238952957        0.2771012337       -0.7925432662
 H         -3.7841235883       -0.5675223097       -1.5772573615
 H         -3.6879166076        1.1754227383       -1.2933769738
 H         -3.7650301944       -0.9819913202        0.8768473690
 H         -3.6612096049        0.7755864713        1.1737569413
 H         -0.4850294561       -1.2567480795       -0.2614290174
 C          4.1547035309        0.8872179534        0.2441159106
 C          3.3753786439       -0.2599388034       -0.3818871743
 C          1.8842719021       -0.1838222771       -0.1549724101
 O          1.4590145866        0.9503507488        0.3302355796
 O          1.1500017706       -1.1205095036       -0.4234676558
 H          5.2153956645        0.7711016181        0.0365062136
 H          4.0099154441        0.9038427426        1.3210843187
 H          3.8209338354        1.8395963994       -0.1581359771
 H          3.7154026471       -1.2243614091        0.0016969953
 H          3.5263218130       -0.2780919980       -1.4649704555
 H          0.4597593581        0.9661787386        0.4565453381
