  22
        -35.27328832
 C         -3.8919464551       -0.2767291385       -1.1628155854
 C         -3.4214541505        0.0499484768        0.2561416187
 C         -1.9134401475        0.0239764475        0.3024530112
 O         -1.4162077626       -1.1847116758        0.3241058720
 O         -1.2346106996        1.0350447167        0.2976252052
 H         -3.5095042332        0.4578057744       -1.8678657608
 H         -4.9778870562       -0.2658684008       -1.2048523656
 H         -3.5398912888       -1.2621341421       -1.4576638780
 H         -3.8052174259       -0.6970638947        0.9513210279
 H         -3.7649470522        1.0416749041        0.5499061160
 H         -0.4094837917       -1.1904255078        0.3197307260
 C          3.8889958416        0.2385778036       -1.1700406393
 C          3.4221456834       -0.0404442413        0.2604285694
 C          1.9141872744       -0.0141883301        0.3065681116
 O          1.4170592948        1.1946511486        0.3220650703
 O          1.2353529918       -1.0253168436        0.3051649991
 H          4.9748008166        0.2244321124       -1.2149244312
 H          3.5378427942        1.2143568207       -1.4964288269
 H          3.5031725617       -0.5182929788       -1.8491351656
 H          3.8066102631        0.7294671651        0.9295849990
 H          3.7668847729       -1.0219645437        0.5854192327
 H          0.4103370154        1.2005531226        0.3157079185
