  22
        -35.27352157
 C         -4.0518720713       -1.1542716688        0.0190982308
 C         -3.4229139385        0.2306401302       -0.0065077558
 C         -1.9127046494        0.2195608959       -0.0065414579
 O         -1.3708228840       -0.9674989512        0.0059667492
 O         -1.2679747834        1.2552856478       -0.0177872397
 H         -3.7440363383       -1.6969127475        0.9087358194
 H         -3.7459617378       -1.7286228809       -0.8510569363
 H         -5.1355673913       -1.0689567671        0.0187918026
 H         -3.7384563507        0.8176196092        0.8597576331
 H         -3.7383401521        0.7846651467       -0.8943163711
 H         -0.3643952036       -0.9320071146        0.0055188918
 C          4.0428119074       -1.0314476891       -0.0023392966
 C          3.4241047834        0.3585560667        0.0113186992
 C          1.9150368517        0.3188340715        0.0016733310
 O          1.3746860924        1.5115839164       -0.0105789315
 O          1.2712652573       -0.7138114223        0.0061495476
 H          3.7344260568       -1.5734055770       -0.8924920543
 H          3.7172691647       -1.5980024014        0.8660982340
 H          5.1270657191       -0.9610341199        0.0090697406
 H          3.7426759265        0.9397241592       -0.8567892248
 H          3.7298641289        0.9148107112        0.9003660191
 H          0.3678836841        1.4795225353       -0.0147654947
