  22
        -35.27308031
 C         -4.0305186603        0.6513311358       -0.6727226401
 C         -3.4129561598       -0.2249693303        0.4185423925
 C         -1.9106122228       -0.2287805972        0.2711711559
 O         -1.4311065229       -1.3596766465       -0.1735887979
 O         -1.2236886587        0.7441856915        0.5270537734
 H         -3.8111781944        0.2442181685       -1.6570584840
 H         -3.6275828477        1.6595094325       -0.6140683817
 H         -5.1090823169        0.6965069273       -0.5478044303
 H         -3.7783992161       -1.2483932825        0.3426059343
 H         -3.6620278456        0.1848161998        1.3984873835
 H         -0.4303119359       -1.3396548328       -0.2915192443
 C          4.1262190655        0.8932857835        0.3935070759
 C          3.3827105006       -0.1673853687       -0.4064925873
 C          1.8890034385       -0.1612822981       -0.1836826774
 O          1.4078842906        0.9646931975        0.2683475922
 O          1.2008848147       -1.1371086547       -0.4328755465
 H          5.1896876969        0.8452011403        0.1737694260
 H          3.9840460749        0.7359211113        1.4596031105
 H          3.7603852323        1.8849764481        0.1431416218
 H          3.7485212775       -1.1696204020       -0.1759031808
 H          3.5359193393       -0.0062588484       -1.4777344935
 H          0.4081344140        0.9369804952        0.3884837532
