  22
        -35.27301146
 C         -4.2083505064       -0.7536263577       -0.3074017895
 C         -3.3855111788        0.3517360378        0.3382212320
 C         -1.8950496602        0.1905705913        0.1558957296
 O         -1.5171001482       -0.9854409567       -0.2639898812
 O         -1.1201745791        1.1005260993        0.4017259713
 H         -3.9420463273       -1.7206725218        0.1098035193
 H         -4.0303927916       -0.7850813997       -1.3791379325
 H         -5.2669151583       -0.5763330580       -0.1349082483
 H         -3.5663866942        0.3804882567        1.4165567051
 H         -3.6603259704        1.3320932484       -0.0565719435
 H         -0.5166716566       -1.0580347491       -0.3603559039
 C          4.1914518787        0.3859262883        0.6855199000
 C          3.3894429180       -0.2402885977       -0.4510670309
 C          1.8988261532       -0.1041379815       -0.2502350123
 O          1.5194359329        1.0779782586        0.1549591115
 O          1.1272518230       -1.0214497329       -0.4719261347
 H          3.9817962714       -0.1216020587        1.6240914538
 H          3.9338144556        1.4356775973        0.7943717411
 H          5.2552047155        0.3040140572        0.4779269156
 H          3.6215227717       -1.2999694595       -0.5630722070
 H          3.6299067484        0.2641936245       -1.3906843128
 H          0.5205918919        1.1447527357        0.2701067939
