  22
        -35.27406402
 C         -4.1872006430        0.7117571721        0.0053751472
 C         -3.3767398334       -0.5759603564        0.0025061394
 C         -1.8888403256       -0.3211925997       -0.0013377704
 O         -1.1839261424       -1.4255265087       -0.0023037106
 O         -1.3982491394        0.7920201067       -0.0032076072
 H         -5.2503849786        0.4874126868        0.0095332441
 H         -3.9557834602        1.3055147232       -0.8750074715
 H         -3.9489631109        1.3057405809        0.8837947002
 H         -3.6069982592       -1.1829956265       -0.8758912235
 H         -3.6022894281       -1.1838730673        0.8815195670
 H         -0.1930197803       -1.2499497974       -0.0041297954
 C          4.1873657068       -0.7115077992        0.0053527102
 C          3.3766821832        0.5760751975        0.0034958006
 C          1.8888071313        0.3210920445       -0.0018567914
 O          1.1838279507        1.4253896674       -0.0031614529
 O          1.3982692575       -0.7921416159       -0.0041729681
 H          5.2504986206       -0.4869372891        0.0099489616
 H          3.9562850212       -1.3044813736       -0.8756457672
 H          3.9490999597       -1.3063960099        0.8831506357
 H          3.6077032500        1.1844598496       -0.8737670476
 H          3.6012819883        1.1827427215        0.8836395142
 H          0.1929250571        1.2497216732       -0.0045295834
