  36
        -40.16113110
 C          4.2383052751        1.7761958876       -0.6739074399
 C          4.0135561616        0.3214608579       -0.2791585677
 C          2.5523878981       -0.1367937516       -0.3226355414
 C          1.9109607725        0.0745127587       -1.6878134266
 C          2.4476511287       -1.6003902795        0.0902438500
 S          1.5634680743        0.8851589677        0.8748315737
 H          4.0182701519        1.9359037131       -1.7260284204
 H          5.2760325309        2.0496033490       -0.4986760144
 H          3.6061599449        2.4350922014       -0.0825032497
 H          4.3959245557        0.1650179591        0.7339351785
 H          4.5862340912       -0.3269582688       -0.9478325526
 H          2.5113319476       -0.4062511580       -2.4573814136
 H          1.8254296011        1.1332708840       -1.9199486593
 H          0.9145047489       -0.3614774739       -1.7026800578
 H          2.9735988738       -2.2214985316       -0.6328323558
 H          1.4085790245       -1.9210245085        0.1243369632
 H          2.8932146041       -1.7653473144        1.0701499586
 H          2.1622470824        0.4373642704        1.9753985004
 C         -4.2400359165       -1.3267419135       -1.0627199830
 C         -4.0206355722       -0.3468424189        0.0839604996
 C         -2.5840632370        0.1653753080        0.2209049364
 C         -2.0766538169        0.8383094456       -1.0477436868
 C         -2.4848086300        1.1196253046        1.4061338182
 S         -1.5048623873       -1.3001184285        0.5795716905
 H         -3.5429370125       -2.1585888644       -0.9893069311
 H         -4.1061911612       -0.8423919115       -2.0266503401
 H         -5.2515811461       -1.7239935525       -1.0194673292
 H         -4.2966728735       -0.8351073310        1.0222421466
 H         -4.6782275510        0.5173345252       -0.0464350493
 H         -2.0001151965        0.1237614432       -1.8633778160
 H         -1.0924615435        1.2701989218       -0.8747801170
 H         -2.7561224624        1.6362579243       -1.3430317645
 H         -3.1386303142        1.9760830183        1.2483706021
 H         -1.4651255257        1.4828966008        1.5241204719
 H         -2.7834021617        0.6209780411        2.3260174108
 H         -0.4244320626       -0.5647749906        0.8443883602
