  36
        -40.16194529
 C          1.9320261209       -2.2504128633       -0.0136456471
 C          2.0126286579       -1.0237683191       -0.9141834651
 C          2.6172699246        0.2187221071       -0.2546182231
 C          4.0187653399       -0.0298017422        0.2869766391
 C          2.6158454665        1.3781232557       -1.2445386702
 S          1.5199277618        0.6798389059        1.1758301598
 H          2.9216579860       -2.6192363825        0.2438948361
 H          1.3963952094       -3.0454442658       -0.5264862890
 H          1.3972797870       -2.0161007715        0.9040644121
 H          1.0084294230       -0.7715261027       -1.2620325717
 H          2.6155309873       -1.2604699653       -1.7948219083
 H          4.6585354260       -0.4140550698       -0.5056636353
 H          3.9993167729       -0.7502498336        1.1006330321
 H          4.4543938024        0.8954494598        0.6614593227
 H          3.2486007345        1.1329512603       -2.0958180802
 H          3.0008794685        2.2872553214       -0.7847984515
 H          1.6097265173        1.5729294348       -1.6105040949
 H          2.1346847288        1.8277843804        1.4477040129
 C         -1.9316984826       -2.2185685579        0.0349062247
 C         -2.0648514925       -0.9894137616        0.9253121104
 C         -2.6388234811        0.2466368923        0.2259233137
 C         -3.9894105788       -0.0230378198       -0.4244423183
 C         -2.7430186519        1.4029913093        1.2145633918
 S         -1.4941190274        0.7688950024       -1.1343243105
 H         -2.9063575948       -2.6149418124       -0.2380135745
 H         -1.3833529987       -2.9969381068        0.5601086941
 H         -1.3899216343       -1.9704964457       -0.8749684980
 H         -1.0807136182       -0.7306883270        1.3250864522
 H         -2.7121211473       -1.2253946234        1.7746176911
 H         -3.8941351297       -0.7442890258       -1.2321716684
 H         -4.3952163222        0.8975891385       -0.8393704124
 H         -4.6883793264       -0.4108105798        0.3144523372
 H         -3.4777389690        1.1702324099        1.9838168121
 H         -3.0523588097        2.3132828236        0.7050008615
 H         -1.7839246043        1.5841345080        1.6972825958
 H         -0.4611868383        0.9956093377       -0.3223741335
