  36
        -40.16130767
 C          2.5341454425       -1.5353345275        1.3458544875
 C          2.4299014678       -1.0211584492       -0.0849643635
 C          2.7311242264        0.4721785498       -0.2479075890
 C          4.0934819155        0.8580365314        0.3130328140
 C          2.6253870589        0.8691020342       -1.7161810257
 S          1.4729836170        1.4528968337        0.6976024025
 H          3.5667526521       -1.5479899975        1.6845562555
 H          2.1451530875       -2.5492596367        1.4065934428
 H          1.9573436292       -0.9047614109        2.0190319557
 H          1.4201233303       -1.2060867149       -0.4600532914
 H          3.1235775346       -1.5771297062       -0.7216830736
 H          4.1239203230        0.7176714710        1.3905826049
 H          4.3008320331        1.9053289197        0.1025526108
 H          4.8714371557        0.2493391353       -0.1444076879
 H          3.4064143648        0.3747696821       -2.2920191938
 H          2.7415938189        1.9449188275       -1.8292909376
 H          1.6586809683        0.5809096798       -2.1266235352
 H          0.4559966174        1.1185100838       -0.0950127575
 C         -4.5427498958       -0.5677008571       -0.9849173083
 C         -3.6328664316       -1.1676961621        0.0802685846
 C         -2.3484025487       -0.3756325779        0.3436546979
 C         -2.6250479248        1.0744656982        0.7187523821
 C         -1.5189944602       -1.0545969639        1.4273173967
 S         -1.3376418245       -0.3283334218       -1.2155994794
 H         -4.9688415853        0.3743532632       -0.6507966158
 H         -5.3595497082       -1.2520221964       -1.2015154892
 H         -3.9901137605       -0.3919260689       -1.9053795247
 H         -3.3599459584       -2.1849478069       -0.2163988300
 H         -4.1800747771       -1.2391197264        1.0242534356
 H         -3.3187286294        1.1122802953        1.5562360547
 H         -3.0549002041        1.6192790835       -0.1180499029
 H         -1.7024274656        1.5716593623        1.0115760997
 H         -2.0659591266       -1.0446249638        2.3683868597
 H         -0.5783062630       -0.5291732769        1.5732698868
 H         -1.3035248866       -2.0898770857        1.1671530132
 H         -1.1673674599       -1.6465357726       -1.3057142736
