  36
        -40.16131018
 C          2.5199548743       -1.5810996455        1.0838017800
 C          2.5811183653       -0.9525342503       -0.3030986598
 C          2.8177984288        0.5610244417       -0.3101517585
 C          4.0999342335        0.9554968673        0.4111664771
 C          2.8302926936        1.0783930140       -1.7446135008
 S          1.4311614218        1.4049602746        0.5825605532
 H          2.2126356297       -2.6215832851        1.0055392091
 H          1.8011137376       -1.0550700452        1.7080494236
 H          3.4900898100       -1.5509593648        1.5728410425
 H          1.6430121740       -1.1539832230       -0.8277713756
 H          3.3855567078       -1.4202911047       -0.8775017535
 H          4.9495980309        0.4338291065       -0.0256301409
 H          4.0413890822        0.7107131925        1.4686959645
 H          4.2650975839        2.0273919708        0.3211106143
 H          3.6793831625        0.6615312952       -2.2841503355
 H          2.9112028016        2.1633258803       -1.7572000437
 H          1.9172169694        0.7941073337       -2.2652492558
 H          0.4746068044        0.9007251015       -0.1974033523
 C         -4.5150979910       -0.8661916399       -0.9764870272
 C         -3.7215654021       -1.0843825760        0.3061170383
 C         -2.4404679200       -0.2511005780        0.4136657467
 C         -2.6991972811        1.2415977014        0.2558806721
 C         -1.7376009120       -0.5302035746        1.7368968700
 S         -1.2938952855       -0.7297347376       -0.9682794288
 H         -3.8782403194       -1.0042836764       -1.8477004507
 H         -4.9382526846        0.1341546184       -1.0104565330
 H         -5.3314531184       -1.5823840380       -1.0322695113
 H         -3.4551774906       -2.1426480865        0.3836180351
 H         -4.3511580595       -0.8419573385        1.1666089456
 H         -3.4665306918        1.5596726359        0.9587226290
 H         -3.0285202342        1.4764861351       -0.7532563502
 H         -1.7898544314        1.8040047541        0.4584099662
 H         -2.3644924110       -0.1951445436        2.5613862932
 H         -0.7914760900        0.0040871994        1.7891952328
 H         -1.5459198307       -1.5948748524        1.8632240367
 H         -1.0401339712       -1.9557124843       -0.5151248772
