  36
        -40.16152821
 C          2.2096866473        0.3986299056       -2.3484833283
 C          3.2153899739        0.1998330213       -1.2209701760
 C          2.6078665459       -0.1411202744        0.1431590333
 C          1.7968166300       -1.4298401886        0.1139950425
 C          3.7051044358       -0.2322839260        1.1989627535
 S          1.4408734179        1.2077419470        0.6620674409
 H          1.5044664701        1.1895461782       -2.1034580633
 H          1.6501114175       -0.5110096496       -2.5465734460
 H          2.7328642460        0.6804157023       -3.2590493382
 H          3.8151932997        1.1095727968       -1.1180441032
 H          3.8980205405       -0.6117694219       -1.4874970657
 H          2.4268818448       -2.2536049211       -0.2154803932
 H          0.9491910007       -1.3471895161       -0.5605660475
 H          1.4195760764       -1.6583438191        1.1086422864
 H          4.3755934619       -1.0579662745        0.9665343449
 H          3.2732863005       -0.4046711036        2.1826545520
 H          4.2911093130        0.6849788363        1.2361470707
 H          2.3161531523        2.2034500374        0.5510740832
 C         -1.8939121235       -2.1163431558        1.2512570144
 C         -1.9424498413       -0.6033305959        1.4251452589
 C         -2.6198318710        0.1486404892        0.2754130890
 C         -4.0352982199       -0.3458793094        0.0070340979
 C         -2.6219579646        1.6458687561        0.5631719512
 S         -1.6617125155       -0.1274054290       -1.2878369762
 H         -1.2702702126       -2.5590437025        2.0245732965
 H         -1.4739417143       -2.3736812173        0.2814880504
 H         -2.8864292759       -2.5529876263        1.3265129844
 H         -0.9237152472       -0.2210273325        1.5281101109
 H         -2.4780018690       -0.3611156982        2.3472535676
 H         -4.6296973425       -0.2874898600        0.9170525303
 H         -4.0271895361       -1.3748410883       -0.3434071038
 H         -4.5066481544        0.2680845137       -0.7578438906
 H         -3.2546740435        1.8579389776        1.4236321660
 H         -3.0052398132        2.1983046458       -0.2922381842
 H         -1.6145439460        1.9972004899        0.7811374781
 H         -0.5794217329        0.5251921519       -0.8728267931
