  36
        -40.16163717
 C          3.6817649467       -1.4631190167        0.8754409640
 C          2.8577472894       -1.0736946896       -0.3458594151
 C          2.5444631401        0.4215989657       -0.4557756338
 C          3.8001554305        1.2835096378       -0.4689550751
 C          1.7026333734        0.6851751539       -1.6998677948
 S          1.5596436866        0.9492973059        1.0226625986
 H          4.6943134263       -1.0735495256        0.8077647148
 H          3.7392673076       -2.5463705684        0.9519985170
 H          3.2213787034       -1.0787312581        1.7829929859
 H          1.9111773492       -1.6215882176       -0.3274773456
 H          3.3913457437       -1.3715615447       -1.2528211714
 H          4.4580430674        0.9718696435       -1.2782292611
 H          4.3367619055        1.2023141689        0.4729022459
 H          3.5350298424        2.3285316401       -0.6178655976
 H          2.2780381358        0.4526866904       -2.5945612287
 H          1.4031245873        1.7303418204       -1.7434108660
 H          0.8071663540        0.0664676602       -1.6958735697
 H          0.6053966237        0.0344807337        0.8468950891
 C         -4.1366212430       -0.7074552651       -1.5242123393
 C         -3.9311460796       -0.3261585370       -0.0630885549
 C         -2.5129916812        0.1394190144        0.2818091587
 C         -2.0518740938        1.3036429599       -0.5851379540
 C         -2.4230367518        0.5110495912        1.7573887869
 S         -1.3269316007       -1.2557762300       -0.0417561812
 H         -4.0640831505        0.1631228130       -2.1705332592
 H         -5.1223767568       -1.1471274569       -1.6560863700
 H         -3.3918691284       -1.4361710907       -1.8372642348
 H         -4.1779093270       -1.1858454998        0.5670669384
 H         -4.6207914062        0.4803481611        0.2004909325
 H         -2.7765390572        2.1134246252       -0.5304369394
 H         -1.9436985885        0.9992793318       -1.6232031275
 H         -1.0914007128        1.6739923677       -0.2337440570
 H         -3.0650358720        1.3670367259        1.9578885889
 H         -1.4034756297        0.7790640554        2.0266279954
 H         -2.7454708818       -0.3137770385        2.3913642615
 H         -1.7927823367       -2.0628022943        0.9079756985
