  36
        -40.16185870
 C          1.9081865222       -2.2210634640       -0.1030363154
 C          2.0790621907       -0.9737886242       -0.9612382674
 C          2.6568583765        0.2364190262       -0.2210028286
 C          3.9896687398       -0.0694754911        0.4497372518
 C          2.7987365709        1.4142989135       -1.1791206031
 S          1.4928936337        0.7441895704        1.1282161727
 H          1.3593846828       -2.9782865413       -0.6578624886
 H          1.3506171795       -1.9855375426        0.8005370512
 H          2.8705656631       -2.6390777263        0.1809409538
 H          1.1075407600       -0.6908977062       -1.3754056342
 H          2.7407766594       -1.2000139433       -1.8020459584
 H          4.4000673352        0.8342861804        0.8960493739
 H          4.6981399937       -0.4490601151       -0.2843363305
 H          3.8672036122       -0.8091972957        1.2368143932
 H          3.5443035358        1.1881135064       -1.9398524454
 H          3.1127168513        2.3067894267       -0.6416658609
 H          1.8521866400        1.6229956423       -1.6752157738
 H          0.4707008724        0.9789892995        0.3051233694
 C         -1.9465602658       -2.2349161053        0.0901031525
 C         -2.0311701791       -0.9823302935        0.9538080858
 C         -2.6268315286        0.2418561180        0.2531145714
 C         -4.0268126485       -0.0175532194       -0.2873213447
 C         -2.6248016714        1.4313085119        1.2066998822
 S         -1.5210642734        0.6547034468       -1.1853976441
 H         -2.9350286998       -2.6081235976       -0.1656018857
 H         -1.4181413782       -3.0164116629        0.6305330637
 H         -1.4026465133       -2.0287118912       -0.8289129503
 H         -1.0291342983       -0.7228374954        1.3026774008
 H         -2.6421392389       -1.1914321641        1.8358935281
 H         -4.6721751037       -0.3736510217        0.5138915542
 H         -4.0065857406       -0.7636265878       -1.0775277629
 H         -4.4564939925        0.8971592529       -0.6932559118
 H         -3.2610269217        1.2148183065        2.0631461894
 H         -3.0051867072        2.3270475300        0.7177020207
 H         -1.6190718342        1.6337785552        1.5695786869
 H         -2.1318737522        1.7948392680       -1.4964850866
