  36
        -40.16137431
 C          4.0521702573       -1.2151977775        1.2771444406
 C          3.9335211665       -0.3863487746        0.0038104580
 C          2.5415939989        0.2020741296       -0.2475901429
 C          2.0431252354        1.0455243216        0.9184800797
 C          2.5387230308        1.0222748929       -1.5324019052
 S          1.3260707586       -1.1915610255       -0.4428949939
 H          3.2859134215       -1.9870698977        1.3032719028
 H          3.9482065589       -0.5922758364        2.1614480941
 H          5.0258499453       -1.6978794542        1.3142655318
 H          4.2079755605       -1.0090661537       -0.8529055584
 H          4.6442966547        0.4434900182        0.0450925326
 H          2.7781518842        1.8103469059        1.1606874743
 H          1.8716302015        0.4320749292        1.7994582486
 H          1.1086506112        1.5347594021        0.6529806060
 H          3.1988098438        1.8804580344       -1.4189683932
 H          1.5384763807        1.3884430803       -1.7544149543
 H          2.8889257174        0.4311709483       -2.3774964441
 H          1.8405445034       -1.6729818588       -1.5715023120
 C         -3.8679877820       -1.8061628387        0.4339240489
 C         -2.9093247103       -0.9293038491       -0.3650631922
 C         -2.5455405970        0.3959274786        0.3104015061
 C         -3.7599241636        1.2837400583        0.5493822734
 C         -1.7551046324        0.1935753514        1.5959874574
 S         -1.4677493243        1.3272747293       -0.8824965997
 H         -4.0572305968       -2.7257671174       -0.1151443957
 H         -4.8197387549       -1.3063255911        0.5933224184
 H         -3.4443948834       -2.0709422066        1.3990555419
 H         -3.3569701689       -0.7089223022       -1.3376471964
 H         -1.9875307220       -1.4904035276       -0.5441849205
 H         -4.3308226689        1.4050950633       -0.3690512781
 H         -3.4417883028        2.2682997143        0.8873187621
 H         -4.4036746970        0.8517035837        1.3118817448
 H         -2.3854067134       -0.2555420455        2.3605706961
 H         -1.3949077574        1.1497503253        1.9703714058
 H         -0.9000175223       -0.4569800498        1.4220449920
 H         -0.5408048266        0.3723289057       -0.9655766547
