  36
        -40.16211944
 C          1.9504480701       -2.2324479971        0.3323246687
 C          1.9883836247       -1.1373126297       -0.7264581848
 C          2.5888786466        0.1888484997       -0.2497596735
 C          3.9879185268        0.0237887012        0.3291991104
 C          2.5992352365        1.1966144034       -1.3939768514
 S          1.5346163391        0.8828621935        1.1075015421
 H          2.9510481177       -2.5831586821        0.5717593517
 H          1.3721493727       -3.0785085561       -0.0312883826
 H          1.4856757069       -1.8636689042        1.2442775974
 H          0.9717210494       -0.9443474435       -1.0785947263
 H          2.5722001215       -1.4827566985       -1.5841225047
 H          4.6375552335       -0.4609852338       -0.3973795351
 H          3.9648798983       -0.5749690784        1.2362696555
 H          4.4066841972        0.9971864628        0.5771806414
 H          3.2828919268        0.8657289683       -2.1742920183
 H          2.9252320107        2.1724390325       -1.0398706527
 H          1.6052062107        1.2986192458       -1.8268857443
 H          0.4717136679        1.0772651522        0.3257329364
 C         -1.9886965439       -2.2355697207       -0.3346116233
 C         -1.9740334525       -1.1373598037        0.7219455682
 C         -2.5723614389        0.1969835239        0.2683355044
 C         -4.0014610995        0.0574663825       -0.2389798454
 C         -2.4986892083        1.2074552099        1.4074473606
 S         -1.5197200503        0.8220361882       -1.1339049797
 H         -1.5102253192       -1.8939962009       -1.2500358648
 H         -3.0036628895       -2.5465410742       -0.5686354900
 H         -1.4444765236       -3.1025844014        0.0316066682
 H         -0.9434444786       -0.9588294890        1.0360657465
 H         -2.5318472593       -1.4735859023        1.5997982920
 H         -4.0363042678       -0.5398268024       -1.1464390306
 H         -4.4264370859        1.0358658405       -0.4584364318
 H         -4.6177308343       -0.4218926544        0.5197641918
 H         -3.1086574816        0.8627512328        2.2407162866
 H         -2.8714634704        2.1811435339        1.0930030628
 H         -1.4751794511        1.3245522471        1.7577292563
 H         -2.1002084818        2.0159887970       -1.2140561783
