  14
        -20.78958844
 C         -1.2993426170       -1.1204682069        0.7842389701
 C         -0.7062261935       -0.2990220980       -0.3631986520
 C         -1.5376174980        0.9563337326       -0.6229134512
 C          0.7014297151        0.1030773647        0.0220902657
 O          1.6237603028       -0.5209379996       -0.7230851389
 O          0.9943881137        0.8753398384        0.8939756583
 H         -2.3240494798       -1.3985251559        0.5507281847
 H         -1.2937107781       -0.5335332042        1.6996466639
 H         -0.7214744660       -2.0273482224        0.9476435704
 H         -0.6490203595       -0.9117689786       -1.2666143409
 H         -1.1416609401        1.5119107579       -1.4699146903
 H         -1.5151083794        1.5991308954        0.2536572480
 H         -2.5683081038        0.6844204979       -0.8358717668
 H          2.5176629635       -0.2590473973       -0.4495435033
