  14
        -20.78919089
 C         -1.1213420567       -1.4946877166       -0.2048620693
 C         -0.7301708090       -0.0418133735       -0.4785772163
 C         -1.6051751535        0.9240974243        0.3215214785
 C          0.7240049452        0.1699842074       -0.1162642261
 O          0.9709095964       -0.0605386060        1.1797913196
 O          1.5874093647        0.5070855294       -0.8814418601
 H         -0.4973425032       -2.1745744418       -0.7805158408
 H         -2.1594012951       -1.6562032057       -0.4849206006
 H         -1.0039045229       -1.7211849597        0.8518703030
 H         -0.8281567177        0.1709953251       -1.5471989022
 H         -1.4943901074        0.7351400314        1.3862938754
 H         -2.6487607814        0.7892032385        0.0481661515
 H         -1.3240105187        1.9547267001        0.1173907300
 H          1.9102158919        0.0856628341        1.3713431557
