  14
        -20.78962852
 C         -1.2474064021       -1.2137250733        0.6583711313
 C         -0.7101522799       -0.2419013956       -0.3981729360
 C         -1.5815433631        1.0065419713       -0.4911455947
 C          0.6999681203        0.1310207731        0.0055919530
 O          1.6093092412       -0.6639245311       -0.5763396476
 O          1.0063262479        1.0028124384        0.7723205283
 H         -0.6255574686       -2.1043596629        0.7123360269
 H         -2.2613341056       -1.5122267204        0.4037693212
 H         -1.2589495705       -0.7337941623        1.6343546532
 H         -0.6609983727       -0.7524174873       -1.3637495952
 H         -1.5402330980        1.5538213232        0.4471873713
 H         -2.6127161980        0.7305798492       -0.6958870576
 H         -1.2306155492        1.6612024766       -1.2852626331
 H          2.5033710523       -0.4319908433       -0.2782191010
  14
        -20.78958844
 C         -1.2993426170       -1.1204682069        0.7842389701
 C         -0.7062261935       -0.2990220980       -0.3631986520
 C         -1.5376174980        0.9563337326       -0.6229134512
 C          0.7014297151        0.1030773647        0.0220902657
 O          1.6237603028       -0.5209379996       -0.7230851389
 O          0.9943881137        0.8753398384        0.8939756583
 H         -2.3240494798       -1.3985251559        0.5507281847
 H         -1.2937107781       -0.5335332042        1.6996466639
 H         -0.7214744660       -2.0273482224        0.9476435704
 H         -0.6490203595       -0.9117689786       -1.2666143409
 H         -1.1416609401        1.5119107579       -1.4699146903
 H         -1.5151083794        1.5991308954        0.2536572480
 H         -2.5683081038        0.6844204979       -0.8358717668
 H          2.5176629635       -0.2590473973       -0.4495435033
  14
        -20.78919089
 C         -1.1213420567       -1.4946877166       -0.2048620693
 C         -0.7301708090       -0.0418133735       -0.4785772163
 C         -1.6051751535        0.9240974243        0.3215214785
 C          0.7240049452        0.1699842074       -0.1162642261
 O          0.9709095964       -0.0605386060        1.1797913196
 O          1.5874093647        0.5070855294       -0.8814418601
 H         -0.4973425032       -2.1745744418       -0.7805158408
 H         -2.1594012951       -1.6562032057       -0.4849206006
 H         -1.0039045229       -1.7211849597        0.8518703030
 H         -0.8281567177        0.1709953251       -1.5471989022
 H         -1.4943901074        0.7351400314        1.3862938754
 H         -2.6487607814        0.7892032385        0.0481661515
 H         -1.3240105187        1.9547267001        0.1173907300
 H          1.9102158919        0.0856628341        1.3713431557
  14
        -20.78839873
 C         -1.1694412952       -1.4866264290       -0.1356519022
 C         -0.7318225672       -0.0586440964       -0.4371240768
 C         -1.6180353503        0.9671026404        0.2758731220
 C          0.7115008382        0.2117805419       -0.0611647288
 O          1.3459273224       -0.8507851478        0.4462666690
 O          1.2586033614        1.2744465056       -0.1978883816
 H         -2.2019473514       -1.6269581412       -0.4462710602
 H         -1.0961390557       -1.6901278030        0.9295618281
 H         -0.5458446246       -2.2025672916       -0.6641150912
 H         -0.7981528077        0.1247995675       -1.5163181721
 H         -2.6415713281        0.8898653300       -0.0815162077
 H         -1.2515562900        1.9725131730        0.0856293031
 H         -1.6104106926        0.7908734262        1.3493813606
 H          2.2614452002       -0.6174112088        0.6679323944
  14
        -20.78839545
 C         -1.4527844955       -0.4315810322        1.1592646088
 C         -0.6884151757       -0.4756993246       -0.1669212730
 C         -1.3862596743        0.3414752434       -1.2471813278
 C          0.7388462215       -0.0309926002        0.0841782791
 O          1.1507998250        0.9473945610       -0.7297367672
 O          1.4566273573       -0.5016795882        0.9271210001
 H         -1.5807093577        0.5978059021        1.4871046404
 H         -0.9033298681       -0.9742280280        1.9239237382
 H         -2.4343568340       -0.8828981458        1.0409504965
 H         -0.6206461635       -1.5225678246       -0.4873877310
 H         -2.3941775317       -0.0372382721       -1.3995273105
 H         -0.8454602514        0.2822526617       -2.1877730555
 H         -1.4482870506        1.3862534670       -0.9534564044
 H          2.0681832207        1.1872957062       -0.5233834220
