  14
  -20.789628520000001        3.6207231977474379E-002 !mtd3
 C         -1.2474064021       -1.2137250733        0.6583711313
 C         -0.7101522799       -0.2419013956       -0.3981729360
 C         -1.5815433631        1.0065419713       -0.4911455947
 C          0.6999681203        0.1310207731        0.0055919530
 O          1.6093092412       -0.6639245311       -0.5763396476
 O          1.0063262479        1.0028124384        0.7723205283
 H         -0.6255574686       -2.1043596629        0.7123360269
 H         -2.2613341056       -1.5122267204        0.4037693212
 H         -1.2589495705       -0.7337941623        1.6343546532
 H         -0.6609983727       -0.7524174873       -1.3637495952
 H         -1.5402330980        1.5538213232        0.4471873713
 H         -2.6127161980        0.7305798492       -0.6958870576
 H         -1.2306155492        1.6612024766       -1.2852626331
 H          2.5033710523       -0.4319908433       -0.2782191010
  14
  -20.789628499999999        3.6206465699397665E-002 !gc
 C         -1.3981691113       -0.9228812890        0.9749968128
 C         -0.6946474546       -0.4040609593       -0.2749482095
 C         -1.4384021806        0.7968457008       -0.8700218963
 C          0.7072933512        0.0548682812        0.0634748522
 O          1.5624392109       -0.1804537984       -0.9419990326
 O          1.0458670726        0.5947044486        1.0811550555
 H         -2.4319207513       -1.1709483161        0.7486957092
 H         -1.3775250753       -0.1615705978        1.7506565905
 H         -0.9003627733       -1.8119940506        1.3544772679
 H         -0.6192499781       -1.1901165051       -1.0311291045
 H         -0.9351805042        1.1549093064       -1.7652257440
 H         -1.4811691606        1.6055266924       -0.1439297893
 H         -2.4533828702        0.5092858491       -1.1328730827
 H          2.4468637103        0.1523219035       -0.7205072480
  14
  -20.789628480000001        3.6205699437674314E-002 !md8
 C         -1.3963059237       -0.9274313118        0.9716432846
 C         -0.6949354236       -0.4022011714       -0.2769306433
 C         -1.4403277756        0.8011671821       -0.8647965184
 C          0.7071415821        0.0556897186        0.0625318343
 O          1.5649572098       -0.1885095126       -0.9383992875
 O          1.0435866594        0.6013834042        1.0778182184
 H         -1.3747849795       -0.1697804760        1.7508693357
 H         -0.8976095617       -1.8182422424        1.3459978737
 H         -2.4302997956       -1.1747793000        0.7456739282
 H         -0.6200192384       -1.1847219242       -1.0368020920
 H         -2.4557031534        0.5144352097       -1.1270345868
 H         -0.9390795764        1.1637984873       -1.7592813456
 H         -1.4819001966        1.6063387214       -0.1347584222
 H          2.4496816599        0.1429921841       -0.7161178677
  14
  -20.789628480000001        3.6205699437674314E-002 !mtd3
 C         -1.3981952041       -0.9226956288        0.9750964097
 C         -0.6946328132       -0.4040889629       -0.2749027809
 C         -1.4384210355        0.7966891198       -0.8702068552
 C          0.7073174508        0.0547856234        0.0635446194
 O          1.5623418319       -0.1801610598       -0.9420909161
 O          1.0459845395        0.5944530641        1.0812495613
 H         -0.9006332676       -1.8119934171        1.3544667042
 H         -2.4320600190       -1.1704106098        0.7488819602
 H         -1.3772055587       -0.1614264857        1.7507806620
 H         -0.6192393062       -1.1902893578       -1.0309207591
 H         -1.4817503434        1.6052967667       -0.1440519011
 H         -2.4531965264        0.5089007496       -1.1336047196
 H         -0.9348468751        1.1549795580       -1.7651140692
 H          2.4467595827        0.1526728258       -0.7206704304
  14
  -20.789628480000001        3.6205699437674314E-002 !md8
 C         -1.3981025683       -0.9229457181        0.9749630116
 C         -0.6946492252       -0.4040306430       -0.2749730777
 C         -1.4384204984        0.7968901608       -0.8699815537
 C          0.7072967015        0.0548998886        0.0634800891
 O          1.5624009711       -0.1805434526       -0.9419367427
 O          1.0458611787        0.5947586203        1.0811256208
 H         -1.3787579043       -0.1611386402        1.7501749175
 H         -0.8994059176       -1.8112360166        1.3552223011
 H         -2.4314426604       -1.1723751948        0.7482740943
 H         -0.6192257681       -1.1900806459       -1.0311559986
 H         -0.9356390301        1.1545566367       -1.7655950123
 H         -1.4805647905        1.6058289647       -0.1441319854
 H         -2.4536332430        0.5095209644       -1.1321408546
 H          2.4468489717        0.1524014924       -0.7208484164
  14
  -20.789628480000001        3.6205699437674314E-002 !gc
 C         -1.3981094832       -0.9233710579        0.9746220570
 C         -0.6946313485       -0.4039682368       -0.2750883197
 C         -1.4384785979        0.7972551863       -0.8694364443
 C          0.7072735315        0.0549460726        0.0634098139
 O          1.5626703832       -0.1812175245       -0.9416507948
 O          1.0456430342        0.5954407128        1.0807667810
 H         -2.4313164201       -1.1731847090        0.7476936070
 H         -1.3792101398       -0.1617181108        1.7499967246
 H         -0.8991131259       -1.8115505073        1.3547548575
 H         -0.6192900943       -1.1897189681       -1.0315923456
 H         -1.4809056537        1.6056431406       -0.1429996794
 H         -2.4535746181        0.5099508668       -1.1321099880
 H         -0.9354559762        1.1556227096       -1.7646211136
 H          2.4470697106        0.1517305244       -0.7203880319
  14
  -20.789628459999999        3.6204933192031774E-002 !gc
 C         -1.3983748715       -0.9222121983        0.9754974960
 C         -0.6946235769       -0.4043528836       -0.2747035016
 C         -1.4380955940        0.7962888180       -0.8707467539
 C          0.7072995558        0.0546727260        0.0636110581
 O          1.5620874732       -0.1792427753       -0.9424712539
 O          1.0461196585        0.5936920662        1.0815678079
 H         -0.9014964713       -1.8118466881        1.3549620169
 H         -2.4324851603       -1.1690923600        0.7495528466
 H         -1.3765944675       -0.1607995980        1.7510246606
 H         -0.6192274982       -1.1909166601       -1.0303510650
 H         -0.9347269362        1.1535174300       -1.7661836172
 H         -1.4807709962        1.6055685764       -0.1453265997
 H         -2.4531079045        0.5087453217       -1.1334623929
 H          2.4464959463        0.1535570963       -0.7209750821
  14
  -20.789628440000001        3.6204166962741910E-002 !md2
 C         -1.2460807663       -1.2163456356        0.6546024217
 C         -0.7102734415       -0.2403532856       -0.3989072804
 C         -1.5825477893        1.0077173723       -0.4874131915
 C          0.6999813033        0.1317814598        0.0052312645
 O          1.6085462061       -0.6675303652       -0.5719721642
 O          1.0069157899        1.0062341050        0.7685769736
 H         -0.6238237698       -2.1069202087        0.7046997507
 H         -2.2601240929       -1.5143272338        0.3999424671
 H         -1.2569773493       -0.7400348506        1.6323606343
 H         -0.6614081032       -0.7477646143       -1.3661190056
 H         -1.2330131952        1.6648948050       -1.2800741852
 H         -1.5403730414        1.5523487222        0.4524094732
 H         -2.6137951284        0.7316723732       -0.6916364460
 H          2.5026943555       -0.4364225634       -0.2734759368
  14
  -20.789628420000000        3.6203400749532169E-002 !mtd7
 C         -1.2461583628       -1.2162576729        0.6546544840
 C         -0.7102553829       -0.2404670170       -0.3989855797
 C         -1.5824592685        1.0076679878       -0.4873615128
 C          0.6999500964        0.1317469742        0.0052108050
 O          1.6085959419       -0.6675108658       -0.5720615473
 O          1.0068658033        1.0062711459        0.7686566702
 H         -2.2599781785       -1.5147204145        0.3996063568
 H         -1.2576333110       -0.7396641697        1.6322825705
 H         -0.6235351987       -2.1065374379        0.7052290690
 H         -0.6613623328       -0.7479708331       -1.3661892925
 H         -1.2333631423        1.6644345022       -1.2805414725
 H         -1.5397130500        1.5527955791        0.4521662988
 H         -2.6138513096        0.7316111299       -0.6908459128
 H          2.5026466808       -0.4360928980       -0.2735064736
  14
  -20.789628409999999        3.6203017649008275E-002 !gc
 C         -1.2461610426       -1.2163373367        0.6545852139
 C         -0.7102521268       -0.2404418671       -0.3989593912
 C         -1.5824206519        1.0077250764       -0.4872596972
 C          0.6999732076        0.1317542587        0.0051946607
 O          1.6086066585       -0.6675646535       -0.5719663300
 O          1.0067987814        1.0063304512        0.7685285925
 H         -1.2589636873       -0.7393350055        1.6319884627
 H         -0.6226998938       -2.1059804245        0.7060815831
 H         -2.2594559570       -1.5159407477        0.3987378203
 H         -0.6613729771       -0.7479209468       -1.3661633494
 H         -1.5404652309        1.5523521604        0.4526038330
 H         -2.6136408374        0.7317704655       -0.6917150708
 H         -1.2327639359        1.6649995667       -1.2797960800
 H          2.5027240000       -0.4362946884       -0.2735219652
  14
  -20.789628409999999        3.6203017649008275E-002 !mtd8
 C         -1.2466464153       -1.2153908245        0.6558630615
 C         -0.7101718718       -0.2408809596       -0.3986345178
 C         -1.5823123212        1.0071993425       -0.4887026758
 C          0.7000218259        0.1315602803        0.0053991802
 O          1.6088191411       -0.6663341207       -0.5735398893
 O          1.0068335688        1.0051171749        0.7699436879
 H         -1.2574160117       -0.7379530565        1.6330690411
 H         -0.6247140323       -2.1061127685        0.7070691757
 H         -2.2607902405       -1.5132897922        0.4014213974
 H         -0.6611963861       -0.7493399575       -1.3653109592
 H         -1.2296163959        1.6655987640       -1.2789323220
 H         -1.5441791033        1.5505289951        0.4520467580
 H         -2.6126553827        0.7312754750       -0.6976319562
 H          2.5029612615       -0.4348013458       -0.2753413011
  14
  -20.789628400000002        3.6202634552674411E-002 !mtd1
 C         -1.3987532661       -0.9210473044        0.9762793402
 C         -0.6945547170       -0.4047098997       -0.2742481547
 C         -1.4378144452        0.7951838423       -0.8720522511
 C          0.7073910839        0.0545094200        0.0638279424
 O          1.5614601244       -0.1773849568       -0.9433365982
 O          1.0467601582        0.5920827758        1.0824723243
 H         -1.3792470733       -0.1579838764        1.7502496349
 H         -0.9006254435       -1.8089305209        1.3582019213
 H         -2.4321467616       -1.1703352102        0.7496790905
 H         -0.6189818657       -1.1921947274       -1.0289473373
 H         -1.4821542773        1.6048395948       -0.1471173073
 H         -2.4522504015        0.5068710083       -1.1361873447
 H         -0.9332828815        1.1522433452       -1.7669237489
 H          2.4458140011        0.1557649376       -0.7221065443
  14
  -20.789628340000000        3.6200336059120819E-002 !mtd9
 C         -1.3985880297       -0.9218524051        0.9756801379
 C         -0.6945532220       -0.4043801234       -0.2745309341
 C         -1.4381221215        0.7958480019       -0.8711553488
 C          0.7073650369        0.0547447074        0.0636778881
 O          1.5618924200       -0.1787359705       -0.9427465775
 O          1.0464535077        0.5932479388        1.0818799034
 H         -2.4312559156       -1.1735407746        0.7483917781
 H         -1.3813334552       -0.1585863760        1.7494704713
 H         -0.8988131219       -1.8085977225        1.3582591317
 H         -0.6190121092       -1.1913273460       -1.0297843225
 H         -2.4525432815        0.5075841619       -1.1353806452
 H         -0.9337308518        1.1538260500       -1.7656822744
 H         -1.4825204934        1.6048227410       -0.1454383454
 H          2.4463300558        0.1539898013       -0.7213389580
  14
  -20.789628310000001        3.6199186867136628E-002 !mtd2
 C         -1.2452002067       -1.2175717396        0.6525849734
 C         -0.7103210266       -0.2394976205       -0.3994979138
 C         -1.5832489105        1.0082743952       -0.4853844328
 C          0.6999495545        0.1322887962        0.0048417450
 O          1.6081177746       -0.6696088875       -0.5695763936
 O          1.0072659920        1.0080251040        0.7667533114
 H         -2.2588499319       -1.5165209692        0.3973944826
 H         -1.2568280486       -0.7426104638        1.6309933509
 H         -0.6217854542       -2.1073857835        0.7015377901
 H         -0.6616495673       -0.7453050733       -1.3675812798
 H         -1.5400589325        1.5520132249        0.4549329475
 H         -2.6146841074        0.7320619794       -0.6885192268
 H         -1.2350677856        1.6664609937       -1.2777946191
 H          2.5021523859       -0.4389726852       -0.2703927822
  14
  -20.789628279999999        3.6198037711497835E-002 !mtd8
 C         -1.2448709911       -1.2186374732        0.6510232260
 C         -0.7103358287       -0.2389419353       -0.3997111812
 C         -1.5836047608        1.0086811009       -0.4838262438
 C          0.6999519128        0.1325079372        0.0048252515
 O          1.6078524455       -0.6709233363       -0.5678250430
 O          1.0075844669        1.0094209463        0.7651220664
 H         -1.2556901399       -0.7454429101        1.6303098470
 H         -0.6217571078       -2.1087641105        0.6979051758
 H         -2.2588084553       -1.5166698254        0.3959180182
 H         -0.6617135687       -0.7434751354       -1.3684767698
 H         -2.6146094432        0.7325670175       -0.6891874849
 H         -1.2344426233        1.6688970811       -1.2740949274
 H         -1.5420277335        1.5501846959        0.4578226770
 H          2.5018996841       -0.4402275833       -0.2687519955
  14
  -20.789628239999999        3.6196505560862534E-002 !mtd7
 C         -1.2450282577       -1.2177607197        0.6521309380
 C         -0.7103059045       -0.2392887036       -0.3996536430
 C         -1.5834683000        1.0083318956       -0.4849294599
 C          0.7000010667        0.1323005062        0.0048335557
 O          1.6079892827       -0.6699647357       -0.5690282569
 O          1.0073909891        1.0083721274        0.7663103727
 H         -2.2598429186       -1.5141312545        0.3986110372
 H         -1.2535858555       -0.7442930872        1.6313309860
 H         -0.6233412560       -2.1089194265        0.6983291147
 H         -0.6617370648       -0.7447224154       -1.3679331039
 H         -2.6145175888        0.7321997859       -0.6901343667
 H         -1.2341338351        1.6677885653       -1.2757423808
 H         -1.5418952220        1.5506161564        0.4562674542
 H          2.5021090440       -0.4397193724       -0.2698857685
  14
  -20.789628149999999        3.6193058459007027E-002 !mtd10
 C         -1.2449565275       -1.2182033742        0.6515929400
 C         -0.7103384808       -0.2390966389       -0.3997082887
 C         -1.5834932700        1.0085484736       -0.4843229747
 C          0.6998363430        0.1323702855        0.0047985275
 O          1.6080585336       -0.6704229827       -0.5683889962
 O          1.0074295151        1.0088493492        0.7656234779
 H         -0.6235294075       -2.1095824847        0.6967627430
 H         -2.2599781638       -1.5140049517        0.3983150679
 H         -1.2529605942       -0.7455004958        1.6311687361
 H         -0.6617180363       -0.7441072796       -1.3682112619
 H         -2.6145976258        0.7322714900       -0.6890392042
 H         -1.2346094686        1.6681426054       -1.2752684737
 H         -1.5414270077        1.5506336554        0.4569994120
 H          2.5019587173       -0.4397610285       -0.2688754250
  14
  -20.789628069999999        3.6189994644091297E-002 !mtd10
 C         -1.4001748842       -0.9168820987        0.9793211303
 C         -0.6943672827       -0.4062725085       -0.2725771123
 C         -1.4361619660        0.7913667757       -0.8767349324
 C          0.7075043240        0.0537802418        0.0645685618
 O          1.5592075291       -0.1701616367       -0.9464160005
 O          1.0486989098        0.5858882851        1.0854175638
 H         -0.9037658567       -1.8042105502        1.3647559233
 H         -2.4338502933       -1.1651773815        0.7529836182
 H         -1.3797719663       -0.1511232453        1.7506051303
 H         -0.6184038940       -1.1969359044       -1.0239336502
 H         -2.4507978057        0.5026461932       -1.1396492197
 H         -0.9309448131        1.1432331815       -1.7732525665
 H         -1.4800199991        1.6047818856       -0.1559946080
 H          2.4433276482        0.1638909108       -0.7257217275
  14
  -20.789588439999999        3.4703704112497312E-002 !gc
 C         -1.2993426170       -1.1204682069        0.7842389701
 C         -0.7062261935       -0.2990220980       -0.3631986520
 C         -1.5376174980        0.9563337326       -0.6229134512
 C          0.7014297151        0.1030773647        0.0220902657
 O          1.6237603028       -0.5209379996       -0.7230851389
 O          0.9943881137        0.8753398384        0.8939756583
 H         -2.3240494798       -1.3985251559        0.5507281847
 H         -1.2937107781       -0.5335332042        1.6996466639
 H         -0.7214744660       -2.0273482224        0.9476435704
 H         -0.6490203595       -0.9117689786       -1.2666143409
 H         -1.1416609401        1.5119107579       -1.4699146903
 H         -1.5151083794        1.5991308954        0.2536572480
 H         -2.5683081038        0.6844204979       -0.8358717668
 H          2.5176629635       -0.2590473973       -0.4495435033
  14
  -20.789587910000002        3.4684246230747680E-002 !gc
 C         -1.2998635212       -1.1198705668        0.7850555370
 C         -0.7061837861       -0.2994910539       -0.3628225174
 C         -1.5371782768        0.9558934686       -0.6238434022
 C          0.7014684138        0.1028235678        0.0222903060
 O          1.6237513143       -0.5197663505       -0.7241058332
 O          0.9944271221        0.8744772452        0.8947407501
 H         -0.7230929325       -2.0274294329        0.9484971169
 H         -2.3250366611       -1.3967109442        0.5521592397
 H         -1.2930878817       -0.5326502773        1.7002677929
 H         -0.6489495683       -0.9128577665       -1.2658153393
 H         -1.1392520945        1.5122235214       -1.4694510349
 H         -1.5171377120        1.5980515028        0.2532452706
 H         -2.5672197663        0.6838019270       -0.8396381586
 H          2.5176374127       -0.2573577752       -0.4509910981
  14
  -20.789585060000000        3.4579801137746363E-002 !gc
 C         -1.3039621729       -1.1127628888        0.7937846860
 C         -0.7058568639       -0.3038870766       -0.3596473083
 C         -1.5334312186        0.9513067091       -0.6336547068
 C          0.7016030752        0.1009454532        0.0235337474
 O          1.6236388115       -0.5080195190       -0.7342383358
 O          0.9945186433        0.8643712878        0.9031575214
 H         -1.2962826367       -0.5179204444        1.7040236386
 H         -0.7305813075       -2.0209035361        0.9658141811
 H         -2.3297397808       -1.3879578604        0.5616093553
 H         -0.6479378974       -0.9244514382       -1.2576263820
 H         -1.1319078113        1.4995788878       -1.4828207289
 H         -1.5145766161        1.6007087795        0.2381314349
 H         -2.5634622117        0.6796210685       -0.8501407782
 H          2.5173713831       -0.2429253590       -0.4632419545
  14
  -20.789190890000000        2.2786336244248459E-002 !mtd4
 C         -1.1213420567       -1.4946877166       -0.2048620693
 C         -0.7301708090       -0.0418133735       -0.4785772163
 C         -1.6051751535        0.9240974243        0.3215214785
 C          0.7240049452        0.1699842074       -0.1162642261
 O          0.9709095964       -0.0605386060        1.1797913196
 O          1.5874093647        0.5070855294       -0.8814418601
 H         -0.4973425032       -2.1745744418       -0.7805158408
 H         -2.1594012951       -1.6562032057       -0.4849206006
 H         -1.0039045229       -1.7211849597        0.8518703030
 H         -0.8281567177        0.1709953251       -1.5471989022
 H         -1.4943901074        0.7351400314        1.3862938754
 H         -2.6487607814        0.7892032385        0.0481661515
 H         -1.3240105187        1.9547267001        0.1173907300
 H          1.9102158919        0.0856628341        1.3713431557
  14
  -20.789190890000000        2.2786336244248459E-002 !md5
 C         -1.1212564636       -1.4945204051       -0.2092544005
 C         -0.7304375980       -0.0407161117       -0.4783131129
 C         -1.6049180235        0.9224740274        0.3257266566
 C          0.7237427033        0.1709024850       -0.1161379794
 O          0.9727788992       -0.0696005676        1.1777535459
 O          1.5855245471        0.5164116493       -0.8794109771
 H         -0.4976881387       -2.1724277620       -0.7877021308
 H         -2.1595142376       -1.6551836422       -0.4890102854
 H         -1.0029383015       -1.7246262863        0.8465754996
 H         -0.8292646369        0.1759526733       -1.5460813349
 H         -2.6486464091        0.7889625988        0.0521087799
 H         -1.3234253939        1.9538079264        0.1254834370
 H         -1.4939001034        0.7293494378        1.3897467560
 H          1.9120931514        0.0770703926        1.3689960630
  14
  -20.789190890000000        2.2786336244248459E-002 !mtd11
 C         -1.1213201492       -1.4947152371       -0.2040657021
 C         -0.7301226254       -0.0419816294       -0.4786635270
 C         -1.6052561560        0.9243524411        0.3207288384
 C          0.7240049069        0.1698560677       -0.1163080078
 O          0.9705284740       -0.0589859524        1.1801179991
 O          1.5878325513        0.5054974809       -0.8816741128
 H         -2.1595868104       -1.6561772886       -0.4832349564
 H         -1.0031213951       -1.7208631663        0.8526329462
 H         -0.4979160168       -2.1749344012       -0.7799384269
 H         -0.8279790682        0.1701588669       -1.5474423882
 H         -2.6487556514        0.7895954475        0.0468696840
 H         -1.3237607313        1.9549778206        0.1165160208
 H         -1.4950980641        0.7355844521        1.3855650215
 H          1.9099299415        0.0868067125        1.3714679150
  14
  -20.789190869999999        2.2785854001642240E-002 !mtd3
 C         -1.1213537416       -1.4947521325       -0.2042200167
 C         -0.7301539746       -0.0419770853       -0.4785979815
 C         -1.6051488090        0.9243735988        0.3209309765
 C          0.7240319130        0.1698268582       -0.1162966487
 O          0.9706239758       -0.0591825507        1.1801275002
 O          1.5876495953        0.5057365201       -0.8817825219
 H         -2.1591163841       -1.6566149092       -0.4851755257
 H         -1.0049163194       -1.7205367482        0.8527800307
 H         -0.4967394392       -2.1749795363       -0.7788050430
 H         -0.8279669699        0.1703548920       -1.5473297653
 H         -1.4958027130        0.7347461495        1.3857633779
 H         -2.6485461258        0.7905871281        0.0461932174
 H         -1.3227301506        1.9548861848        0.1176626218
 H          1.9100913849        0.0865130535        1.3714306018
  14
  -20.789190860000001        2.2785612884252064E-002 !md7
 C         -1.1212216693       -1.4946998966       -0.2040325753
 C         -0.7301119592       -0.0419515332       -0.4786250568
 C         -1.6053408558        0.9244202820        0.3206300949
 C          0.7240618221        0.1698737789       -0.1162251590
 O          0.9704529005       -0.0588166398        1.1802131277
 O          1.5878382272        0.5052173526       -0.8818214167
 H         -1.0051168489       -1.7202912820        0.8530432432
 H         -0.4963425392       -2.1749517792       -0.7782875122
 H         -2.1588609581       -1.6567349538       -0.4852936929
 H         -0.8278560780        0.1702180175       -1.5474007082
 H         -1.3232748333        1.9549391067        0.1169645484
 H         -1.4957991628        0.7352494268        1.3855127327
 H         -2.6487636491        0.7902432917        0.0461423478
 H          1.9098662539        0.0866747298        1.3719192922
  14
  -20.789190829999999        2.2784889547133324E-002 !gc
 C         -1.1212063856       -1.4947223002       -0.2018209962
 C         -0.7299940936       -0.0424338656       -0.4788205641
 C         -1.6055413433        0.9251571279        0.3185054117
 C          0.7241207014        0.1694308764       -0.1163367848
 O          0.9695078659       -0.0543810682        1.1811951911
 O          1.5888449743        0.5006225707       -0.8826710775
 H         -1.0055043426       -1.7182837043        0.8557419343
 H         -0.4959110361       -2.1758916178       -0.7745562352
 H         -2.1587012100       -1.6574115181       -0.4832764731
 H         -0.8273508086        0.1676772363       -1.5480344165
 H         -2.6489031099        0.7901110376        0.0441185208
 H         -1.3237106768        1.9553886821        0.1127900788
 H         -1.4960072836        0.7381383745        1.3837873684
 H          1.9090618327        0.0906573536        1.3725522522
  14
  -20.789190829999999        2.2784889547133324E-002 !mtd9
 C         -1.1213259038       -1.4944434237       -0.2109034360
 C         -0.7305230947       -0.0403085749       -0.4780914097
 C         -1.6049483950        0.9218805122        0.3272359813
 C          0.7237047148        0.1713996358       -0.1159900126
 O          0.9735951345       -0.0729663136        1.1769516135
 O          1.5848525946        0.5197464804       -0.8787315535
 H         -1.0023095289       -1.7260689949        0.8445254609
 H         -0.4981556150       -2.1715348870       -0.7907515655
 H         -2.1597955188       -1.6546371089       -0.4902189436
 H         -0.8296493988        0.1778190823       -1.5455165456
 H         -1.4940619120        0.7268947024        1.3908901705
 H         -2.6487103470        0.7890218700        0.0533739243
 H         -1.3231346929        1.9535138334        0.1288021330
 H          1.9129035963        0.0737620115        1.3682164627
  14
  -20.789190820000002        2.2784648439948908E-002 !mtd11
 C         -1.1212984527       -1.4947762937       -0.2008080820
 C         -0.7299338229       -0.0427128514       -0.4788984494
 C         -1.6055930894        0.9255065088        0.3175634378
 C          0.7241625317        0.1691348481       -0.1164331210
 O          0.9691314463       -0.0523727122        1.1815899145
 O          1.5893033866        0.4986657156       -0.8830045488
 H         -0.4973031887       -2.1763546825       -0.7744430958
 H         -2.1593440748       -1.6570900664       -0.4804090593
 H         -1.0039380620       -1.7181893072        0.8565966378
 H         -0.8270653621        0.1666707494       -1.5482783611
 H         -1.3240083148        1.9554991965        0.1106894508
 H         -1.4959486738        0.7396318087        1.3830118558
 H         -2.6489264097        0.7899921013        0.0434342147
 H          1.9087029764        0.0927407898        1.3727798565
  14
  -20.789190749999999        2.2782960760580874E-002 !mtd1
 C         -1.1213603604       -1.4943815809       -0.2133819020
 C         -0.7306667643       -0.0397617718       -0.4780001494
 C         -1.6045836565        0.9209188865        0.3297189054
 C          0.7236207401        0.1716597935       -0.1159721317
 O          0.9745824265       -0.0780112487        1.1757825133
 O          1.5836925984        0.5251959512       -0.8775836592
 H         -2.1600319238       -1.6539265775       -0.4921646870
 H         -1.0015653192       -1.7281883725        0.8414353876
 H         -0.4987796848       -2.1704072699       -0.7950314469
 H         -0.8302453871        0.1805793115       -1.5449316370
 H         -1.3234576992        1.9529060690        0.1322523856
 H         -1.4925106122        0.7245108560        1.3930481745
 H         -2.6485272493        0.7879789782        0.0566465330
 H          1.9137228471        0.0700020640        1.3670492636
  14
  -20.788398730000001        9.8542362922102826E-003 !mtd10
 C         -1.1694412952       -1.4866264290       -0.1356519022
 C         -0.7318225672       -0.0586440964       -0.4371240768
 C         -1.6180353503        0.9671026404        0.2758731220
 C          0.7115008382        0.2117805419       -0.0611647288
 O          1.3459273224       -0.8507851478        0.4462666690
 O          1.2586033614        1.2744465056       -0.1978883816
 H         -2.2019473514       -1.6269581412       -0.4462710602
 H         -1.0961390557       -1.6901278030        0.9295618281
 H         -0.5458446246       -2.2025672916       -0.6641150912
 H         -0.7981528077        0.1247995675       -1.5163181721
 H         -2.6415713281        0.8898653300       -0.0815162077
 H         -1.2515562900        1.9725131730        0.0856293031
 H         -1.6104106926        0.7908734262        1.3493813606
 H          2.2614452002       -0.6174112088        0.6679323944
  14
  -20.788395170000001        9.8171835090076452E-003 !gc
 C         -1.1712881536       -1.4858271663       -0.1155831700
 C         -0.7311231689       -0.0624577885       -0.4350229610
 C         -1.6210820297        0.9743561996        0.2560437219
 C          0.7113289440        0.2109389125       -0.0574703961
 O          1.3589754527       -0.8610774524        0.4123016985
 O          1.2487638687        1.2817551292       -0.1661173573
 H         -1.1023585547       -1.6747976979        0.9526453240
 H         -0.5466058065       -2.2095494616       -0.6318677226
 H         -2.2028948006       -1.6292562347       -0.4280478499
 H         -0.7905207267        0.1037590597       -1.5176912487
 H         -1.6225990546        0.8130561619        1.3319090119
 H         -2.6417958990        0.8945221217       -0.1086282395
 H         -1.2504285459        1.9761120368        0.0552979467
 H          2.2741219396       -0.6259835206        0.6335782093
  14
  -20.788397180000000        9.8380866020869370E-003 !mtd3
 C         -1.4596089615       -0.4291685274        1.1606861139
 C         -0.6888754064       -0.4730118993       -0.1610742253
 C         -1.3845344089        0.3372179593       -1.2483545946
 C          0.7373944502       -0.0244009577        0.0900213268
 O          1.1796182346        0.8822899966       -0.7888311158
 O          1.4321047064       -0.4377478106        0.9808885389
 H         -0.9096797094       -0.9645150416        1.9300774644
 H         -2.4377838295       -0.8871540863        1.0402218936
 H         -1.5952725326        0.6005401581        1.4840162111
 H         -0.6154036095       -1.5203909784       -0.4797949992
 H         -1.4444813878        1.3844326450       -0.9628480988
 H         -2.3933489946       -0.0401603851       -1.3976580327
 H         -0.8439159890        0.2692508802       -2.1883060618
 H          2.0964628597        1.1246957347       -0.5829670823
  14
  -20.788395449999999        9.8200927179852709E-003 !mtd9
 C         -1.4527844955       -0.4315810322        1.1592646088
 C         -0.6884151757       -0.4756993246       -0.1669212730
 C         -1.3862596743        0.3414752434       -1.2471813278
 C          0.7388462215       -0.0309926002        0.0841782791
 O          1.1507998250        0.9473945610       -0.7297367672
 O          1.4566273573       -0.5016795882        0.9271210001
 H         -1.5807093577        0.5978059021        1.4871046404
 H         -0.9033298681       -0.9742280280        1.9239237382
 H         -2.4343568340       -0.8828981458        1.0409504965
 H         -0.6206461635       -1.5225678246       -0.4873877310
 H         -2.3941775317       -0.0372382721       -1.3995273105
 H         -0.8454602514        0.2822526617       -2.1877730555
 H         -1.4482870506        1.3862534670       -0.9534564044
 H          2.0681832207        1.1872957062       -0.5233834220
