  17
        -28.95684366
 C         -0.6258493301        0.3575323749        1.8564363136
 C         -0.2198338061        0.2989052477        0.3816535673
 C          0.4053726017       -1.0694568340        0.1003451348
 Cl         0.9152041204       -1.2380209449       -1.5990224242
 C         -1.4428867168        0.5257018906       -0.5167002373
 Cl        -2.7078003579       -0.6938643045       -0.2326608561
 C          0.7754363451        1.4211222272        0.0584705015
 Cl         2.2484093852        1.3053174168        1.0509060386
 H         -1.3490855285       -0.4211914756        2.0809247989
 H         -1.0740410782        1.3221628174        2.0820057685
 H          0.2433488333        0.2225000457        2.4936967925
 H         -0.3149457520       -1.8633600644        0.2937122778
 H          1.2948692378       -1.2139627339        0.7122471910
 H         -1.1691627725        0.4530139917       -1.5691398174
 H         -1.8942087950        1.4971107787       -0.3164035062
 H          0.3363011753        2.3972412783        0.2630263270
 H          1.0946721917        1.3679484447       -0.9822764677
