%nprocshared=4
%mem=8000mb
#T wB97XD/def2svpp opt freq int(grid=ultrafine) scf=(verytight,qc)

Comment gs min

0 1
Cl         1.07774       -0.05754       -0.01931
C          2.85947       -0.05754       -0.01931
Cl         3.45338       -0.21970       -1.69129
Cl         3.45338        1.47151        0.67626
Cl         3.45338       -1.42445        0.95711


