%chk=17.chk
%nprocshared=4
%mem=8000mb
#T wB97XD/def2svpp opt=tight freq int(grid=ultrafine) scf=(verytight,qc) Volume=tight

Dimer

0 1
 C         -1.6508963633       -1.2098769551        0.0002514273
 C         -0.8317940571        0.0028666945       -0.4457508891
 O         -1.4682695499        1.1974088519       -0.0408620305
 C          0.6569425841       -0.0288175990        0.0000658659
 C          0.7927620717        0.1147328690        1.5194625163
 C          1.3199292494       -1.3332878053       -0.4469509141
 C          1.3668683853        1.1508633807       -0.6728556097
 H         -1.2877369038       -2.1198472573       -0.4658531064
 H         -2.6865189556       -1.0601310983       -0.2979142990
 H         -1.6211309948       -1.3286023397        1.0815331061
 H         -0.8487228334        0.0486745072       -1.5412808101
 H         -1.5741853152        1.1670199476        0.9166968395
 H          1.8421993355        0.0535744842        1.7988187236
 H          0.2617331866       -0.6764543790        2.0442651847
 H          0.4156218894        1.0788661234        1.8552749372
 H          2.3962324072       -1.2664955516       -0.3030878559
 H          1.1280923746       -1.5202326454       -1.5012297243
 H          0.9554256319       -2.1794703738        0.1294942732
 H          1.4013968195        1.0084712926       -1.7505348001
 H          2.3853645514        1.2461287615       -0.3035586523
 H          0.8312936601        2.0746901257       -0.4684549830


