%nprocshared=4
%mem=8000mb
#T wB97XD/def2svpp opt=tight freq int(grid=ultrafine) scf=(verytight,qc)

dimer

0 1
 O         -3.0358232168        2.1876567692       -0.5453179517
 C         -3.6335433996        0.9081652984       -0.5821128964
 C         -2.6903040447       -0.1985314623       -0.0745462186
 C         -2.3819637104        0.0338779785        1.4333573626
 O         -1.9205685660        1.3298755389        1.7114228357
 C         -3.3753089964       -1.5779912353       -0.2296540980
 O         -2.6766798525       -2.6190802915        0.3774935302
 C         -1.3747888547       -0.2141616031       -0.8446158768
 O         -0.9799111049        0.8963624865       -1.4233773534
 O         -0.6964352176       -1.2221398889       -0.9147098913
 H         -2.7455811648        2.3247602028        0.3817444416
 H         -3.9125010226        0.7244883141       -1.6246961055
 H         -4.5477355679        0.8997010313        0.0238682888
 H         -1.6747713943       -0.7282721570        1.7746212379
 H         -3.3177726749       -0.0916224833        1.9865659558
 H         -0.9573364555        1.3714796233        1.5372941933
 H         -3.5231819978       -1.7753813055       -1.3032907817
 H         -4.3566866669       -1.5461697449        0.2515502152
 H         -1.7831065387       -2.6312931419       -0.0007150233
 H         -1.6280152914        1.6394711021       -1.2556135046
 O          3.0301103418       -2.1882787598        0.5519404722
 C          3.6302543763       -0.9098883575        0.5878318459
 C          2.6906554399        0.1976515928        0.0753390710
 C          3.3780103903        1.5760747160        0.2292909738
 O          2.6832838705        2.6171258138       -0.3823685613
 C          2.3858267414       -0.0372599380       -1.4329038757
 O          1.9226401382       -1.3328821742       -1.7096452059
 C          1.3732562345        0.2175267104        0.8419911082
 O          0.9746027788       -0.8911972196        1.4217595578
 O          0.6968413598        1.2270024595        0.9088533217
 H          2.7422091874       -2.3267540868       -0.3756346663
 H          4.5461925032       -0.9044855223       -0.0155193412
 H          3.9065663257       -0.7246283489        1.6308426551
 H          4.3607066764        1.5411014035       -0.2489960748
 H          3.5231817985        1.7756994194        1.3028760369
 H          1.7887240618        2.6323558727       -0.0066326191
 H          3.3233909005        0.0853204164       -1.9837950421
 H          1.6810895836        0.7256229829       -1.7776009672
 H          0.9587832115       -1.3719670217       -1.5387150797
 H          1.6216756367       -1.6359238005        1.2571384350

