%chk=9.chk
%nprocshared=4
%mem=8000mb
#T wB97XD/def2svpp opt=tight freq int(grid=ultrafine) scf=(verytight,qc) Volume=tight

Dimer

0 1
 O         -1.3958514406       -0.8883593928        0.0178372220
 C         -1.2593625005        0.4932352115       -0.2442508938
 C          0.0155897162        1.0918475926        0.3551108204
 C          1.2766521476        0.4617064014       -0.2478278481
 O          1.4191197351       -0.8945039480        0.0846018189
 H         -1.4484647394       -1.0175023307        0.9722422850
 H         -2.1372232098        1.0391655150        0.1285600292
 H         -1.2387121755        0.5785231389       -1.3338454651
 H          0.0214650713        0.9303139758        1.4363216152
 H          0.0244758933        2.1654904194        0.1663545474
 H          2.1672682139        0.9627444429        0.1409230930
 H          1.2559327581        0.5905648744       -1.3411142205
 H          0.5940787209       -1.3394294262       -0.1633316418


