%nprocshared=4
%mem=8000mb
%chk=1.chk
%mem=8000mb
#T wB97XD/def2svpp opt=tight freq int(grid=ultrafine) scf=(verytight,qc)

comment

1 2
C        1.322104   -0.724753    0.289486
C        0.000005   -0.000019    0.000005
C       -0.331780   -0.118052   -1.494302
C       -1.125364   -0.638847    0.826090
C        0.135046    1.481645    0.378728
H        1.254678   -1.795792    0.025789
H        1.587012   -0.656543    1.360181
H        2.152379   -0.285278   -0.292507
H       -0.435153   -1.175964   -1.796526
H        0.462577    0.334486   -2.115115
H       -1.280700    0.395611   -1.732858
H       -1.245999   -1.708055    0.574219
H       -2.091468   -0.136448    0.637800
H       -0.913490   -0.568630    1.908396
H        0.939648    1.968815   -0.201353
H        0.374126    1.597898    1.451356
H       -0.803675    2.030058    0.180578


