%chk=monomer.chk
%nprocshared=4
%mem=8000mb
#T wB97XD/def2svpp opt=tight freq int(grid=ultrafine) scf=(verytight,qc) Volume=tight

Monomer

0 1
 C         -1.6811903514       -0.8264547549       -0.3980877627
 C         -0.4501976204        0.0003032873       -0.0056092603
 C         -0.5530326354        1.4128567122       -0.5806714876
 N         -0.2782893355        0.1094312718        1.4441554976
 C          0.8321006209       -0.6808291724       -0.5243917362
 O          1.9818543784       -0.0177878989       -0.0755692999
 H         -1.7508335351       -0.9164210491       -1.4788713679
 H         -2.5884734080       -0.3489494312       -0.0315922370
 H         -1.6208954931       -1.8278185932        0.0261031690
 H         -1.4060200697        1.9375259260       -0.1552385091
 H         -0.6717578631        1.3708090332       -1.6597325815
 H          0.3516693298        1.9687690578       -0.3499418123
 H         -0.3128102928       -0.8106728576        1.8721159391
 H         -1.0193772690        0.6691218466        1.8502228518
 H          0.8594070736       -0.6707559866       -1.6159680068
 H          0.8429288813       -1.7303756305       -0.1865402703
 H          1.7974104388        0.2420370675        0.8394041037



