  34
        -33.67388268
 C         -4.0618326098        0.4767939610       -0.3790615715
 C         -2.6581267763       -0.0003247439       -0.0002992842
 C         -1.9551875083       -0.5517062722       -1.2425620056
 C         -1.8582828401        1.1755757103        0.5645029197
 C         -2.7614072849       -1.1014249290        1.0572186564
 H         -4.6494423656       -0.3453415357       -0.7818606254
 H         -4.0090596369        1.2605544204       -1.1317226712
 H         -4.5797494310        0.8729146159        0.4918304147
 H         -1.8568341925        0.2211476765       -2.0020919132
 H         -2.5231270088       -1.3769841131       -1.6667348952
 H         -0.9613303030       -0.9148959815       -0.9922565764
 H         -1.7602451687        1.9649641103       -0.1779902662
 H         -0.8609915947        0.8551645379        0.8583720582
 H         -2.3532994024        1.5897081767        1.4403784629
 H         -3.3334533692       -1.9445996199        0.6762190821
 H         -3.2559507499       -0.7284138900        1.9515768143
 H         -1.7727077460       -1.4592385199        1.3370957426
 C          4.0630299729       -0.4776778019       -0.3734817746
 C          2.6581194809        0.0003307611       -0.0003212991
 C          1.9555493059        0.5398395448       -1.2479950183
 C          1.8596440883       -1.1720314529        0.5737098627
 C          2.7584930353        1.1106282950        1.0478268250
 H          4.0122561474       -1.2697125089       -1.1176009707
 H          4.5815993244       -0.8631180945        0.5018119878
 H          4.6489051819        0.3413714136       -0.7850469708
 H          1.8609657546       -0.2391949082       -2.0016751063
 H          2.5215790257        1.3636311577       -1.6775767949
 H          0.9600999588        0.9017524729       -1.0021752892
 H          1.7623109366       -1.9672331278       -0.1626697975
 H          0.8620477779       -0.8504354013        0.8653098061
 H          2.3552656495       -1.5788652353        1.4526508933
 H          3.2516606310        0.7458099620        1.9463139780
 H          1.7689605888        1.4700104189        1.3227452655
 H          3.3305535289        1.9509673625        0.6606111753
