  18
        -20.50792125
 C         -1.0494890118        1.4729500112        0.5537228498
 C         -0.3795799097        0.2117399204        0.0045706343
 C         -1.2172497448       -1.0147987234        0.3787816789
 N         -0.3509581703        0.2997518182       -1.4490888945
 C          1.0473534727        0.0995669550        0.5974362996
 N          1.7869180341       -0.9786074254       -0.0436299822
 H         -1.1635773464        1.4075283689        1.6327149986
 H         -2.0296784889        1.5879286225        0.0999042143
 H         -0.4563760361        2.3549044972        0.3205379557
 H         -0.8016505926       -1.9139644167       -0.0686655544
 H         -2.2268715643       -0.8881970251       -0.0010039432
 H         -1.2573788975       -1.1389166501        1.4583463617
 H          0.1917182150       -0.4784498561       -1.8110303242
 H          0.1236281062        1.1509201930       -1.7330699499
 H          0.9770297506       -0.0073120606        1.6927602719
 H          1.5854964989        1.0297395428        0.3870475578
 H          1.4005576389       -1.8768646234        0.2271658309
 H          2.7563307324       -0.9628411135        0.2529255920
