  18
        -20.50773693
 C         -0.5472343593        1.4180976329        0.5471460284
 C         -0.4371043589        0.0001872597       -0.0185854961
 C         -1.6390335438       -0.8310036957        0.4334557958
 N         -0.4904187368        0.0976589451       -1.4737150988
 C          0.8635253610       -0.6908491923        0.4850748341
 N          2.1152908379       -0.0448523656        0.1394775453
 H          0.2728434521        2.0429662211        0.1972516063
 H         -0.5325904228        1.3970133499        1.6339478768
 H         -1.4769899649        1.8695604032        0.2127203025
 H         -1.7005339385       -0.8551267712        1.5179791591
 H         -1.5554090040       -1.8523870969        0.0681227481
 H         -2.5516014013       -0.3964301157        0.0349759213
 H         -0.4381918076       -0.8246229966       -1.8926182616
 H          0.2839173513        0.6498329649       -1.8277097785
 H          0.9001748954       -1.7049508195        0.0716780750
 H          0.8254502117       -0.7735945234        1.5738942307
 H          2.1759125433        0.8697914423        0.5726684532
 H          2.1881531883        0.0783044032       -0.8659034958
