  18
        -20.50643267
 C         -0.4333628247        1.4895271370        0.3948766585
 C         -0.3748523392        0.0845075983       -0.2026091379
 C         -1.1888690692       -0.8889182877        0.6658238405
 N         -0.8787239963        0.1532097985       -1.5715785674
 C          1.0934957852       -0.3717347446       -0.3015626052
 N          1.7521002601       -0.3635804854        0.9943433934
 H          0.1342194952        1.5134589368        1.3196275447
 H         -1.4627749175        1.7790909531        0.5937911605
 H          0.0000661815        2.1972069959       -0.3057345758
 H         -1.0775347273       -1.9115159416        0.3056354833
 H         -2.2452558110       -0.6257999838        0.6290481962
 H         -0.8648771605       -0.8424064402        1.7017552827
 H         -1.8298351132        0.5059929373       -1.5734872240
 H         -0.8909747673       -0.7700898641       -1.9924860538
 H          1.6143906641        0.3358675278       -0.9500483920
 H          1.1196864049       -1.3592152307       -0.7956094256
 H          2.7459069952       -0.5256303213        0.8779625844
 H          1.3876817678       -1.1079810333        1.5792597001
