  18
        -20.50346492
 C         -0.6519891430        1.4374051902        0.5644107182
 C         -0.4324033372        0.0228238423        0.0131891463
 C         -1.6300705539       -0.8611444116        0.4054807862
 N         -0.2704799756        0.1367189997       -1.4291091381
 C          0.8499270865       -0.5946494965        0.6066579570
 N          2.0394997889       -0.1498590871       -0.0985455129
 H         -1.5349421356        1.8792073847        0.1091362120
 H          0.1988857084        2.0698414252        0.3263808295
 H         -0.7892975505        1.4139595954        1.6426562999
 H         -1.6825705534       -0.9801801625        1.4850846026
 H         -1.5380657437       -1.8477474144       -0.0459957609
 H         -2.5594370870       -0.4092000164        0.0629788606
 H         -1.1681842585        0.2855067900       -1.8756976807
 H          0.1493901144       -0.7026427575       -1.8082245016
 H          0.8075577241       -1.6853265158        0.5013062968
 H          0.8689870357       -0.3685867043        1.6865196534
 H          2.8705151708       -0.3786724903        0.4350990023
 H          2.0126526425        0.8535947934       -0.2342453185
