  18
        -20.50763678
 C         -0.4816735466        1.4116806399        0.5671060771
 C         -0.4331709019       -0.0057057787       -0.0009923639
 C         -1.6642621713       -0.8001207003        0.4634568369
 N         -0.3543902289        0.0882878780       -1.4577431839
 C          0.8466166301       -0.7164281119        0.4734186331
 N          2.0162083092        0.0544820577        0.0898286447
 H          0.4075719482        1.9519423315        0.2599758326
 H         -0.5140738802        1.3789317966        1.6520875329
 H         -1.3633119294        1.9363603249        0.2048633426
 H         -2.5763740875       -0.3163110472        0.1172934773
 H         -1.6960832415       -0.8584160592        1.5482563400
 H         -1.6389384612       -1.8141008046        0.0656961028
 H         -1.1281469258        0.6366580501       -1.8162933413
 H         -0.4109465010       -0.8366242457       -1.8726253493
 H          0.8469344287       -1.7398731590        0.0562902773
 H          0.8356962036       -0.8010271818        1.5640964694
 H          2.8583876858       -0.4968478793        0.2130633022
 H          1.9309763571        0.2929402456       -0.8938196768
