  18
        -20.50793653
 C         -0.4802788043        1.4871780644        0.3926649194
 C         -0.3819450861        0.0785182820       -0.1976647387
 C         -1.2039319875       -0.9031833797        0.6549719847
 N         -0.8590553569        0.1490601202       -1.5744549060
 C          1.0967339778       -0.3807175045       -0.2801795903
 N          1.8573350752       -0.4016860441        0.9505179970
 H         -0.1215585861        1.5080903325        1.4191556167
 H         -1.5151988655        1.8227899887        0.3887760479
 H          0.1067060581        2.1775518585       -0.2071587508
 H         -0.8537330469       -0.9185521485        1.6849471590
 H         -1.1312942306       -1.9119462191        0.2500765787
 H         -2.2524300108       -0.6081329760        0.6615980251
 H         -1.8339977574        0.4291448174       -1.5965383671
 H         -0.7864071483       -0.7580640680       -2.0222249373
 H          1.6106763675        0.2805415732       -0.9818372676
 H          1.1216880716       -1.3931044298       -0.6960685586
 H          1.4145444255       -1.0054086929        1.6345154018
 H          1.9204589467        0.5296946202        1.3454203126
