  18
        -20.51014275
 C         -0.5577434288        1.4190853119        0.5617718790
 C         -0.4397163479       -0.0006130899        0.0019927630
 C         -1.6460023450       -0.8363802777        0.4571469817
 N         -0.3418785049        0.1000566585       -1.4522972705
 C          0.8630465672       -0.6786668401        0.4953664426
 N          2.0914892160       -0.0497655037        0.0563393176
 H         -0.4903229976        1.4072939071        1.6467119367
 H         -1.5121293020        1.8582368352        0.2781721342
 H          0.2338111333        2.0475866191        0.1612307213
 H         -1.6870576221       -0.8884492826        1.5421432806
 H         -1.5758795230       -1.8508209241        0.0672265276
 H         -2.5732464247       -0.3916604181        0.0979468060
 H         -0.3001634183       -0.8264203888       -1.8648855888
 H         -1.1574955507        0.5710438357       -1.8287744359
 H          0.8786427401       -1.7092793239        0.1249940573
 H          0.8627989895       -0.7133885721        1.5874485140
 H          2.1759715807        0.8733165160        0.4688866746
 H          2.0478374122        0.0745185315       -0.9508611158
