  18
        -20.51014275
 C         -0.5577434288        1.4190853119        0.5617718790
 C         -0.4397163479       -0.0006130899        0.0019927630
 C         -1.6460023450       -0.8363802777        0.4571469817
 N         -0.3418785049        0.1000566585       -1.4522972705
 C          0.8630465672       -0.6786668401        0.4953664426
 N          2.0914892160       -0.0497655037        0.0563393176
 H         -0.4903229976        1.4072939071        1.6467119367
 H         -1.5121293020        1.8582368352        0.2781721342
 H          0.2338111333        2.0475866191        0.1612307213
 H         -1.6870576221       -0.8884492826        1.5421432806
 H         -1.5758795230       -1.8508209241        0.0672265276
 H         -2.5732464247       -0.3916604181        0.0979468060
 H         -0.3001634183       -0.8264203888       -1.8648855888
 H         -1.1574955507        0.5710438357       -1.8287744359
 H          0.8786427401       -1.7092793239        0.1249940573
 H          0.8627989895       -0.7133885721        1.5874485140
 H          2.1759715807        0.8733165160        0.4688866746
 H          2.0478374122        0.0745185315       -0.9508611158
  18
        -20.50836457
 C         -0.4958725399        1.4912685341        0.3958280974
 C         -0.3719411046        0.0893280003       -0.2062819398
 C         -1.1928277739       -0.9087781417        0.6142330091
 N         -0.9541787419        0.1366409247       -1.5445180553
 C          1.1195076078       -0.3493339705       -0.2672420248
 N          1.8384324516       -0.4445011888        0.9869689494
 H         -0.2030234305        1.4957346112        1.4430691305
 H         -1.5279632486        1.8224116461        0.3229869350
 H          0.1319238218        2.1958786268       -0.1464725521
 H         -1.0618676844       -1.9181412733        0.2285708169
 H         -2.2452445887       -0.6478715667        0.5467713477
 H         -0.8976525505       -0.8928257093        1.6607124543
 H         -0.9001856153       -0.7756781698       -1.9848679049
 H         -0.4448981249        0.7923555039       -2.1274621974
 H          1.6644455803        0.3600510722       -0.9005662239
 H          1.1725962779       -1.3332735808       -0.7470913911
 H          1.3913788811       -1.1165907127        1.6005746855
 H          1.8474494702        0.4532565930        1.4581507817
  18
        -20.50793653
 C         -0.4802788043        1.4871780644        0.3926649194
 C         -0.3819450861        0.0785182820       -0.1976647387
 C         -1.2039319875       -0.9031833797        0.6549719847
 N         -0.8590553569        0.1490601202       -1.5744549060
 C          1.0967339778       -0.3807175045       -0.2801795903
 N          1.8573350752       -0.4016860441        0.9505179970
 H         -0.1215585861        1.5080903325        1.4191556167
 H         -1.5151988655        1.8227899887        0.3887760479
 H          0.1067060581        2.1775518585       -0.2071587508
 H         -0.8537330469       -0.9185521485        1.6849471590
 H         -1.1312942306       -1.9119462191        0.2500765787
 H         -2.2524300108       -0.6081329760        0.6615980251
 H         -1.8339977574        0.4291448174       -1.5965383671
 H         -0.7864071483       -0.7580640680       -2.0222249373
 H          1.6106763675        0.2805415732       -0.9818372676
 H          1.1216880716       -1.3931044298       -0.6960685586
 H          1.4145444255       -1.0054086929        1.6345154018
 H          1.9204589467        0.5296946202        1.3454203126
  18
        -20.50792125
 C         -1.0494890118        1.4729500112        0.5537228498
 C         -0.3795799097        0.2117399204        0.0045706343
 C         -1.2172497448       -1.0147987234        0.3787816789
 N         -0.3509581703        0.2997518182       -1.4490888945
 C          1.0473534727        0.0995669550        0.5974362996
 N          1.7869180341       -0.9786074254       -0.0436299822
 H         -1.1635773464        1.4075283689        1.6327149986
 H         -2.0296784889        1.5879286225        0.0999042143
 H         -0.4563760361        2.3549044972        0.3205379557
 H         -0.8016505926       -1.9139644167       -0.0686655544
 H         -2.2268715643       -0.8881970251       -0.0010039432
 H         -1.2573788975       -1.1389166501        1.4583463617
 H          0.1917182150       -0.4784498561       -1.8110303242
 H          0.1236281062        1.1509201930       -1.7330699499
 H          0.9770297506       -0.0073120606        1.6927602719
 H          1.5854964989        1.0297395428        0.3870475578
 H          1.4005576389       -1.8768646234        0.2271658309
 H          2.7563307324       -0.9628411135        0.2529255920
  18
        -20.50773693
 C         -0.5472343593        1.4180976329        0.5471460284
 C         -0.4371043589        0.0001872597       -0.0185854961
 C         -1.6390335438       -0.8310036957        0.4334557958
 N         -0.4904187368        0.0976589451       -1.4737150988
 C          0.8635253610       -0.6908491923        0.4850748341
 N          2.1152908379       -0.0448523656        0.1394775453
 H          0.2728434521        2.0429662211        0.1972516063
 H         -0.5325904228        1.3970133499        1.6339478768
 H         -1.4769899649        1.8695604032        0.2127203025
 H         -1.7005339385       -0.8551267712        1.5179791591
 H         -1.5554090040       -1.8523870969        0.0681227481
 H         -2.5516014013       -0.3964301157        0.0349759213
 H         -0.4381918076       -0.8246229966       -1.8926182616
 H          0.2839173513        0.6498329649       -1.8277097785
 H          0.9001748954       -1.7049508195        0.0716780750
 H          0.8254502117       -0.7735945234        1.5738942307
 H          2.1759125433        0.8697914423        0.5726684532
 H          2.1881531883        0.0783044032       -0.8659034958
  18
        -20.50763678
 C         -0.4816735466        1.4116806399        0.5671060771
 C         -0.4331709019       -0.0057057787       -0.0009923639
 C         -1.6642621713       -0.8001207003        0.4634568369
 N         -0.3543902289        0.0882878780       -1.4577431839
 C          0.8466166301       -0.7164281119        0.4734186331
 N          2.0162083092        0.0544820577        0.0898286447
 H          0.4075719482        1.9519423315        0.2599758326
 H         -0.5140738802        1.3789317966        1.6520875329
 H         -1.3633119294        1.9363603249        0.2048633426
 H         -2.5763740875       -0.3163110472        0.1172934773
 H         -1.6960832415       -0.8584160592        1.5482563400
 H         -1.6389384612       -1.8141008046        0.0656961028
 H         -1.1281469258        0.6366580501       -1.8162933413
 H         -0.4109465010       -0.8366242457       -1.8726253493
 H          0.8469344287       -1.7398731590        0.0562902773
 H          0.8356962036       -0.8010271818        1.5640964694
 H          2.8583876858       -0.4968478793        0.2130633022
 H          1.9309763571        0.2929402456       -0.8938196768
  18
        -20.50751304
 C         -1.0275512512        1.4808845906        0.5514865250
 C         -0.3881603797        0.2047915134        0.0029892014
 C         -1.2069716514       -1.0166269860        0.4548455522
 N         -0.3289761198        0.3261295247       -1.4513003835
 C          1.0657469050        0.1127216343        0.5362801575
 N          1.8800010422       -0.9763831891        0.0381797046
 H         -2.0684459670        1.5491444168        0.2407891067
 H         -0.4964778521        2.3489833898        0.1709983007
 H         -0.9885115453        1.4903955399        1.6373522147
 H         -1.2232159394       -1.0861129492        1.5397994919
 H         -0.7856727091       -1.9393149316        0.0559103654
 H         -2.2331474726       -0.9346970925        0.0988717562
 H         -1.2505994655        0.5249842250       -1.8244776588
 H         -0.0129597892       -0.5431463673       -1.8694817575
 H          1.0326791365        0.0287291115        1.6260322614
 H          1.5792833427        1.0409995761        0.2771088065
 H          2.0035442589       -0.8884731455       -0.9642327334
 H          1.4428513627       -1.8712224053        0.2306358924
  18
        -20.50706141
 C         -0.5002529443        1.4136527160        0.6008889422
 C         -0.4363293699        0.0061474944       -0.0088968976
 C         -1.6590637573       -0.8090874756        0.4157278528
 N         -0.4072600691        0.0337031323       -1.4701162620
 C          0.8396547464       -0.7060178754        0.4815191211
 N          2.0383038391        0.0217215339        0.0866413245
 H         -1.3398118789        1.9700357744        0.1864159001
 H          0.4236187233        1.9449563171        0.3856128754
 H         -0.6216780490        1.3563558543        1.6792302582
 H         -1.6589243808       -0.9678195049        1.4907545660
 H         -1.6505099577       -1.7740373802       -0.0844165935
 H         -2.5734670977       -0.2866106688        0.1423687840
 H          0.3138865835        0.6747736397       -1.7838313282
 H         -1.2928985786        0.3813704200       -1.8231294661
 H          0.8213722121       -1.7391832531        0.1010981700
 H          0.8187375060       -0.7420645786        1.5735372170
 H          2.1672607033       -0.0594323967       -0.9168049367
 H          2.8518358183       -0.3928383476        0.5281491315
  18
        -20.50682162
 C         -0.5232058238        1.4114707456        0.5912258286
 C         -0.4381190883        0.0007820722       -0.0178338902
 C         -1.6664351835       -0.8100816209        0.4060974228
 N         -0.3900619606        0.0211403560       -1.4734966038
 C          0.8364616415       -0.7204880588        0.4591484238
 N          2.0313880891        0.0125624346        0.0630526581
 H         -0.4529251134        1.3685591589        1.6760573959
 H         -1.4736872942        1.8726660657        0.3279055171
 H          0.2781306609        2.0410058069        0.2096905328
 H         -1.6142473817       -1.8064968978       -0.0229575769
 H         -2.5723007844       -0.3293362636        0.0452125782
 H         -1.7208990296       -0.8901377236        1.4888312791
 H          0.5318448721        0.3281217104       -1.7659276882
 H         -1.0776395284        0.6684417807       -1.8435365363
 H          0.8680771519       -1.6931794263       -0.0363489085
 H          0.7698089446       -0.8878292613        1.5464116077
 H          2.8532506060       -0.5669349329        0.1883712607
 H          2.1478654430        0.8367202918        0.6430687693
  18
        -20.50674349
 C         -0.4400895142        1.4872027360        0.4460303128
 C         -0.3715307180        0.0977363604       -0.2024536157
 C         -1.1872329361       -0.9010787768        0.6213096336
 N         -0.9058558601        0.0778658059       -1.5621522636
 C          1.0997829747       -0.3472778548       -0.3068177911
 N          1.7448344113       -0.4016706212        0.9956377904
 H          0.0417578555        2.2260788655       -0.1922681585
 H          0.0776400394        1.4694789004        1.4001538188
 H         -1.4751494558        1.7851261542        0.6043022253
 H         -2.2394819980       -0.6255132761        0.6013062878
 H         -0.8551860276       -0.9065078194        1.6552665667
 H         -1.0883607055       -1.8983613473        0.2003695055
 H         -0.3899997288        0.7221667529       -2.1523452530
 H         -1.8756427724        0.3761778384       -1.5570528943
 H          1.6400590600        0.3901987957       -0.9083186494
 H          1.1228015525       -1.3043218068       -0.8522590861
 H          2.7361361779       -0.5813007408        0.8804192999
 H          1.3603036934       -1.1643395683        1.5428065780
  18
        -20.50662067
 C         -0.5107608911        1.4194987961        0.5541132973
 C         -0.4358332201        0.0019189387       -0.0118174659
 C         -1.6608105267       -0.8087385019        0.4181058076
 N         -0.4646167704        0.1018887344       -1.4659852106
 C          0.8417898023       -0.6960844842        0.5166012051
 N          2.0391441807        0.0193900500        0.0993986101
 H         -1.3278626238        1.9567687963        0.0812152527
 H          0.4228728183        1.9399801547        0.3584030716
 H         -0.6752629876        1.3919503780        1.6274187385
 H         -1.7125531486       -0.8808281889        1.5010607448
 H         -1.6184619675       -1.8141897617        0.0041379980
 H         -2.5601157818       -0.3242284464        0.0495645967
 H         -0.3160529147       -0.8078440090       -1.8903288037
 H          0.2627699278        0.7304471325       -1.7869812482
 H          0.8335244611       -1.7500098997        0.1835118128
 H          0.8168144603       -0.6909314991        1.6086490538
 H          2.1764622417       -0.0758190461       -0.9022830784
 H          2.8573721274       -0.3667680543        0.5557374039
  18
        -20.50643267
 C         -0.4333628247        1.4895271370        0.3948766585
 C         -0.3748523392        0.0845075983       -0.2026091379
 C         -1.1888690692       -0.8889182877        0.6658238405
 N         -0.8787239963        0.1532097985       -1.5715785674
 C          1.0934957852       -0.3717347446       -0.3015626052
 N          1.7521002601       -0.3635804854        0.9943433934
 H          0.1342194952        1.5134589368        1.3196275447
 H         -1.4627749175        1.7790909531        0.5937911605
 H          0.0000661815        2.1972069959       -0.3057345758
 H         -1.0775347273       -1.9115159416        0.3056354833
 H         -2.2452558110       -0.6257999838        0.6290481962
 H         -0.8648771605       -0.8424064402        1.7017552827
 H         -1.8298351132        0.5059929373       -1.5734872240
 H         -0.8909747673       -0.7700898641       -1.9924860538
 H          1.6143906641        0.3358675278       -0.9500483920
 H          1.1196864049       -1.3592152307       -0.7956094256
 H          2.7459069952       -0.5256303213        0.8779625844
 H          1.3876817678       -1.1079810333        1.5792597001
  18
        -20.50346492
 C         -0.6519891430        1.4374051902        0.5644107182
 C         -0.4324033372        0.0228238423        0.0131891463
 C         -1.6300705539       -0.8611444116        0.4054807862
 N         -0.2704799756        0.1367189997       -1.4291091381
 C          0.8499270865       -0.5946494965        0.6066579570
 N          2.0394997889       -0.1498590871       -0.0985455129
 H         -1.5349421356        1.8792073847        0.1091362120
 H          0.1988857084        2.0698414252        0.3263808295
 H         -0.7892975505        1.4139595954        1.6426562999
 H         -1.6825705534       -0.9801801625        1.4850846026
 H         -1.5380657437       -1.8477474144       -0.0459957609
 H         -2.5594370870       -0.4092000164        0.0629788606
 H         -1.1681842585        0.2855067900       -1.8756976807
 H          0.1493901144       -0.7026427575       -1.8082245016
 H          0.8075577241       -1.6853265158        0.5013062968
 H          0.8689870357       -0.3685867043        1.6865196534
 H          2.8705151708       -0.3786724903        0.4350990023
 H          2.0126526425        0.8535947934       -0.2342453185
