  30
        -35.46038801
 C          2.1342420653       -0.0976063845        1.3766224743
 C          2.4659734224        0.6616670574        0.0928947772
 C          3.8860720083        1.2171470359        0.1578699460
 C          2.3094993652       -0.2460083983       -1.1357590134
 O          0.9717246206       -0.4987345428       -1.4791700957
 H          2.8535989461       -0.8995153016        1.5337856597
 H          1.1398083130       -0.5347253483        1.3328701970
 H          2.1757087411        0.5714804706        2.2334951521
 H          1.7624260842        1.4940612703       -0.0211221368
 H          4.0069430226        1.8487505557        1.0350801583
 H          4.1111284420        1.8092709255       -0.7261615253
 H          4.6064156119        0.4036472127        0.2187826411
 H          2.8472881076       -1.1910556624       -0.9618918830
 H          2.7475514625        0.2389273301       -2.0129672145
 H          0.5109580285       -0.8527835550       -0.7002729649
 C         -4.0492371700        0.5645315566        0.5856780731
 C         -2.8236364276       -0.0553764263       -0.0810684745
 C         -2.0348148519        1.0010194777       -0.8505560183
 C         -1.9470915830       -0.7353539930        0.9763781382
 O         -0.9079999296       -1.5211795405        0.4283125512
 H         -4.6377065304       -0.1919220056        1.1007226582
 H         -4.6807985330        1.0424630346       -0.1589215344
 H         -3.7448770669        1.3158203881        1.3110076467
 H         -3.1611079392       -0.8261607865       -0.7865943109
 H         -2.6530463879        1.4359957994       -1.6323171053
 H         -1.1501396325        0.5697021345       -1.3118804309
 H         -1.7218295257        1.7967565703       -0.1776951894
 H         -2.5735685179       -1.3600912367        1.6293558172
 H         -1.4509025471        0.0166857466        1.5943566091
 H         -1.2964023569       -2.1513773315       -0.1897515945
