  30
        -35.46051628
 C          3.5149896570       -0.0122725652        1.2686216808
 C          2.2639505952        0.1567941816        0.4126205312
 C          2.1092158897        1.6031368064       -0.0497230197
 C          2.3078727938       -0.7831723059       -0.8002159110
 O          1.1090202515       -0.7852400548       -1.5312141394
 H          4.4052107320        0.2174447025        0.6867835895
 H          3.5979062640       -1.0334407169        1.6343095899
 H          3.4816217920        0.6582031157        2.1245048215
 H          1.3866744126       -0.1198264213        1.0104401557
 H          1.2813861837        1.6827874954       -0.7496632532
 H          3.0151398022        1.9346914590       -0.5529589254
 H          1.9220722149        2.2626380681        0.7951570640
 H          2.5504223829       -1.8025169233       -0.4626249906
 H          3.0855879721       -0.4581219342       -1.4969883811
 H          0.3968757528       -1.0620042111       -0.9289492685
 C         -3.7011483496        1.0209351159        0.8398313091
 C         -2.7356281277        0.2325924420       -0.0410543164
 C         -1.8285178081        1.1748844479       -0.8279537057
 C         -1.9082814001       -0.7248711257        0.8236145122
 O         -1.1076307087       -1.6122825054        0.0711681774
 H         -3.1505035694        1.6082114916        1.5712893305
 H         -4.3757725856        0.3538262314        1.3722096489
 H         -4.2961611874        1.6988548833        0.2331745718
 H         -3.3190400457       -0.3699321006       -0.7499631164
 H         -1.2801696058        1.8202776915       -0.1450673255
 H         -2.4190348142        1.8005659675       -1.4930898275
 H         -1.1122858438        0.6161016375       -1.4255120344
 H         -2.5756447791       -1.2980980270        1.4830464166
 H         -1.2115146270       -0.1602553079        1.4475410708
 H         -1.6724002141       -2.0856406678       -0.5505999012
