  30
        -35.46049554
 C          3.8728044372       -0.2989520501        0.9455873260
 C          2.4688369617       -0.0161647977        0.4204488127
 C          2.1877453690        1.4837266394        0.3885826531
 C          2.2889165419       -0.6200108539       -0.9781470670
 O          0.9814003836       -0.4820685102       -1.4700084975
 H          4.6186989453        0.1458751436        0.2900241851
 H          4.0568897721       -1.3699002651        0.9972141273
 H          3.9970063206        0.1199188313        1.9415722435
 H          1.7378714752       -0.4967828197        1.0828178844
 H          1.2206963522        1.6711612936       -0.0719970812
 H          2.9492005141        1.9970712623       -0.1950160829
 H          2.1848618401        1.8970817732        1.3949211329
 H          2.5739803943       -1.6841114084       -0.9522597415
 H          2.9378627006       -0.1096110864       -1.6956908760
 H          0.3722961817       -0.7960599614       -0.7786553152
 C         -3.9508894912        0.8992142691        0.6316178091
 C         -2.8611070178        0.0919618860       -0.0693305525
 C         -2.1832272675        0.9286157353       -1.1515782838
 C         -1.8408717993       -0.4107379191        0.9582948473
 O         -0.9411279498       -1.3665588449        0.4344602780
 H         -3.5176398513        1.7608178195        1.1345097068
 H         -4.4699992957        0.2939713064        1.3718389564
 H         -4.6792396667        1.2550412963       -0.0927089859
 H         -3.3248075382       -0.7855912231       -0.5398799139
 H         -2.9003516202        1.1994172774       -1.9229618603
 H         -1.3653906402        0.3840166690       -1.6160741671
 H         -1.7829582809        1.8433121133       -0.7196214733
 H         -2.3678542944       -0.8390937847        1.8230287883
 H         -1.2177973016        0.4150238007        1.3087005981
 H         -1.4505825495       -2.0772109623        0.0280575131
