  30
        -35.46070569
 C          3.6687144587       -0.1283244066        1.1151635783
 C          2.3214088105        0.0460934141        0.4217833656
 C          2.0041620915        1.5233940716        0.2057030424
 C          2.3046679326       -0.7003487348       -0.9186122419
 O          1.0461825226       -0.6765834889       -1.5406394887
 H          3.8723752083       -1.1801385268        1.3036263907
 H          3.6763963117        0.3994222533        2.0662100989
 H          4.4684885624        0.2702509230        0.4944047061
 H          1.5393345717       -0.3951856300        1.0521639874
 H          1.0942921561        1.6255362297       -0.3804798005
 H          2.8148825550        2.0065182784       -0.3357992614
 H          1.8708741309        2.0340414701        1.1571941138
 H          2.6298773451       -1.7405829839       -0.7583589864
 H          2.9981196394       -0.2289408831       -1.6209447526
 H          0.3919138833       -0.9874772437       -0.8908992236
 C         -3.7506255172        1.0214091070        0.7630906568
 C         -2.7671153654        0.1737969360       -0.0396405241
 C         -2.0103749247        1.0352008129       -1.0475147850
 C         -1.7978154300       -0.5384373253        0.9102368997
 O         -0.9968596598       -1.5105187458        0.2697165248
 H         -3.2168874719        1.7735935928        1.3396422899
 H         -4.3256975585        0.4050817624        1.4508945803
 H         -4.4426618443        1.5280799603        0.0952242250
 H         -3.3309885424       -0.5949416907       -0.5849639129
 H         -2.6987039080        1.4576740752       -1.7757244978
 H         -1.2618465097        0.4516509967       -1.5777095764
 H         -1.5093791410        1.8536913774       -0.5348617919
 H         -2.3611206085       -1.0082233981        1.7293412423
 H         -1.0969343268        0.1798664169        1.3414014707
 H         -1.5737930560       -2.1230032253       -0.2010065451
