  30
        -35.46044562
 C          1.8321186693       -0.6253602240       -1.2167095604
 C          2.7582195742        0.0212225697       -0.1899155384
 C          3.8967668944        0.7666651509       -0.8818511351
 C          1.9858642972        0.9848994177        0.7178446406
 O          1.0384186647        0.3434312416        1.5473321332
 H          2.3857014163       -1.3342262668       -1.8279310627
 H          1.4097267536        0.1354310705       -1.8700583635
 H          1.0184835088       -1.1554983642       -0.7282427475
 H          3.1881329495       -0.7674080740        0.4415306181
 H          4.5809263647        1.1966987606       -0.1533258084
 H          3.5016366826        1.5708478807       -1.4986116192
 H          4.4571820908        0.0882916468       -1.5202153318
 H          1.4145049928        1.6936788810        0.1136370004
 H          2.6928956995        1.5533673619        1.3391692225
 H          1.4916016845       -0.3408401780        2.0537481563
 C         -3.8672398911        0.0715006249       -1.0265460056
 C         -2.4331614056        0.0103156397       -0.5078819706
 C         -2.0866785168        1.2923335553        0.2475353494
 C         -2.2487785370       -1.2207580279        0.3912765915
 O         -0.9032599907       -1.5545372125        0.6148751606
 H         -4.1047802700       -0.8128106190       -1.6132711418
 H         -4.0068229537        0.9486072616       -1.6543169591
 H         -4.5666829253        0.1298182029       -0.1948989811
 H         -1.7509194978       -0.0978319392       -1.3585712594
 H         -1.0803227322        1.2509568535        0.6566540905
 H         -2.7841797837        1.4427832408        1.0698620388
 H         -2.1505401531        2.1518791883       -0.4164908583
 H         -2.6896143288       -2.0994121422       -0.0884394153
 H         -2.7683185710       -1.0551834459        1.3478236442
 H         -0.4429952208       -0.7757289510        0.9689999649
