  30
        -35.46070355
 C          3.6883336453       -0.1154095948        1.1042216784
 C          2.3346270299        0.0543640669        0.4221027551
 C          2.0182797335        1.5300297409        0.1940759711
 C          2.3042931916       -0.7057064934       -0.9104353504
 O          1.0415235485       -0.6828841034       -1.5236819883
 H          3.8936478579       -1.1658235255        1.2987428602
 H          3.7051997323        0.4195841237        2.0510874806
 H          4.4822099572        0.2782913431        0.4728053073
 H          1.5575986107       -0.3787029077        1.0644784486
 H          2.8232361841        2.0050965485       -0.3629700453
 H          1.8986286344        2.0511257947        1.1417279691
 H          1.1012129683        1.6284734431       -0.3812699337
 H          2.6263918025       -1.7455256036       -0.7420846321
 H          2.9943645321       -0.2444392653       -1.6226501445
 H          0.3912186972       -0.9944381606       -0.8701784786
 C         -3.7701108693        1.0108399324        0.7457498473
 C         -2.7684499263        0.1782870499       -0.0503686301
 C         -1.9825521477        1.0600693826       -1.0174005941
 C         -1.8270929511       -0.5600698999        0.9076952303
 O         -1.0143844127       -1.5219962390        0.2665973667
 H         -3.2492287235        1.7457917385        1.3553404547
 H         -4.3668156896        0.3807441239        1.4019082082
 H         -4.4410386136        1.5374477091        0.0718117632
 H         -3.3203117286       -0.5750557804       -0.6284265519
 H         -2.6500048603        1.5021923930       -1.7534138915
 H         -1.2224787001        0.4859894123       -1.5415486190
 H         -1.4929466987        1.8644961196       -0.4723801173
 H         -2.4136253777       -1.0450927921        1.7012622193
 H         -1.1341957260        0.1445840656        1.3729443964
 H         -1.5820240299       -2.1194278473       -0.2338840320
