  30
        -35.46046186
 C          1.7428525320       -0.4930685414       -1.2811929661
 C          2.7206207770        0.0398594702       -0.2371106503
 C          3.8214932821        0.8653482820       -0.8983728671
 C          1.9958395176        0.8920594027        0.8105339989
 O          1.0757993085        0.1616896455        1.5960384319
 H          1.2830682746        0.3339137515       -1.8186653164
 H          0.9588838980       -1.0839908361       -0.8143679621
 H          2.2651555640       -1.1213907698       -1.9988286695
 H          3.1824571287       -0.8119539280        0.2791914413
 H          4.5397123188        1.2188053048       -0.1615267016
 H          3.3940954807        1.7289143529       -1.4031965951
 H          4.3513433076        0.2653774003       -1.6339022720
 H          1.4083422487        1.6712670413        0.3189734317
 H          2.7335882228        1.3784521610        1.4649237047
 H          1.5418444525       -0.5798312093        1.9997477231
 C         -3.8044266414        0.1883060086       -1.0364450089
 C         -2.3849546815        0.0541216175       -0.4921660052
 C         -2.0227325677        1.2745074688        0.3526085109
 C         -2.2526727799       -1.2370181846        0.3285979385
 O         -0.9213882379       -1.6234763905        0.5535112864
 H         -4.5214432498        0.2114060410       -0.2181418907
 H         -4.0509595765       -0.6489220086       -1.6852834383
 H         -3.9062577037        1.1081245530       -1.6079016788
 H         -1.6865260209       -0.0175775211       -1.3334484379
 H         -2.0410378768        2.1757251041       -0.2566327879
 H         -1.0307686035        1.1750198837        0.7858761940
 H         -2.7392037832        1.3951046961        1.1633425064
 H         -2.7082755003       -2.0698336109       -0.2147859372
 H         -2.7858624631       -1.1183538245        1.2845285987
 H         -0.4468067361       -0.8835383619        0.9667245839
