  30
        -35.46046476
 C          3.4739273443        0.0165223704        1.3006137457
 C          2.2474832467        0.1791431528        0.4085197710
 C          2.1281890200        1.6130871009       -0.1005755359
 C          2.3061311850       -0.7976440695       -0.7744398560
 O          1.1226540907       -0.8093405024       -1.5300746799
 H          4.3819930578        0.2134399809        0.7345559876
 H          3.5304271371       -0.9939337932        1.6996023168
 H          3.4309311638        0.7139048459        2.1342916492
 H          1.3511763117       -0.0652355546        0.9919258569
 H          1.9311659965        2.3008173097        0.7191786410
 H          1.3193443855        1.6847667251       -0.8231843170
 H          3.0517430770        1.9148263452       -0.5903331259
 H          2.5308993573       -1.8086800797       -0.4018337006
 H          3.1014718569       -0.5011465149       -1.4640096976
 H          0.3980817328       -1.0793538161       -0.9398461439
 C         -3.6823723622        1.0242186378        0.8598614286
 C         -2.7255913252        0.2443591608       -0.0378898702
 C         -1.7920384840        1.1916862259       -0.7868734010
 C         -1.9256868543       -0.7570132220        0.8025626057
 O         -1.1287289733       -1.6295503361        0.0293164530
 H         -3.1261845492        1.5775753013        1.6132497352
 H         -4.3741521597        0.3544853996        1.3662877369
 H         -4.2591237006        1.7322376505        0.2701874823
 H         -3.3149207933       -0.3230351180       -0.7704725637
 H         -1.0853839173        0.6366782263       -1.3991702873
 H         -1.2328967623        1.8004113722       -0.0795638810
 H         -2.3636942539        1.8531489470       -1.4336055086
 H         -2.6111363798       -1.3422904801        1.4321600857
 H         -1.2287975690       -0.2266863037        1.4558110415
 H         -1.6925148065       -2.0736202516       -0.6145517238
