  30
        -35.46076753
 C          1.8964235868       -1.5737361384       -0.2970755828
 C          2.3543264478       -0.2255283204        0.2536126800
 C          3.8157438372       -0.2811457754        0.6869385158
 C          2.1474239290        0.8751058738       -0.7954039002
 O          0.7991917224        1.0541024095       -1.1429471899
 H          2.5542787647       -1.8934870019       -1.1026265254
 H          0.8870635847       -1.4924009358       -0.6933326141
 H          1.9085333750       -2.3334929262        0.4817024004
 H          1.7367424821        0.0293808436        1.1239493568
 H          4.4552532849       -0.5015257075       -0.1653609673
 H          3.9600067126       -1.0575634361        1.4347942809
 H          4.1280205620        0.6696049967        1.1134008275
 H          2.6660270331        0.6135502241       -1.7222638961
 H          2.5712365343        1.8192097650       -0.4180553143
 H          0.2958502735        1.1837395504       -0.3195741407
 C         -2.7518316407       -1.7469318554       -0.2384198942
 C         -2.2515642437       -0.3053506539       -0.2347404356
 C         -3.4006041165        0.6612250704       -0.5191528877
 C         -1.5943307043        0.0051618259        1.1160236956
 O         -0.9124984249        1.2433799917        1.1384225521
 H         -1.9324598791       -2.4397529909       -0.0623661636
 H         -3.2038393772       -1.9873854060       -1.1972725776
 H         -3.4985233520       -1.8927073987        0.5398886360
 H         -1.4930942899       -0.1859598068       -1.0153254383
 H         -3.0437782435        1.6856647241       -0.6115442983
 H         -4.1438740718        0.6177466951        0.2759252711
 H         -3.8864572159        0.3979122125       -1.4552012436
 H         -0.8333128020       -0.7455046273        1.3410222647
 H         -2.3507255211       -0.0211903784        1.9129431859
 H         -1.5474383297        1.9428955560        0.9473886267
