  30
        -35.46069411
 C          3.7564494024       -0.1595857870        1.0475974984
 C          2.3786769219        0.0345258033        0.4224183937
 C          2.0585824477        1.5172838150        0.2531524159
 C          2.2981341389       -0.6832021296       -0.9312439987
 O          1.0164835839       -0.6326782032       -1.5019272351
 H          3.9649802351       -1.2160042422        1.2016860417
 H          3.8112815681        0.3457121649        2.0091141494
 H          4.5274577242        0.2511352360        0.3990318188
 H          1.6242435197       -0.4165489838        1.0791519597
 H          1.1175616177        1.6361188536       -0.2782891700
 H          2.8404446561        2.0071005570       -0.3235735729
 H          1.9821233426        2.0089787338        1.2206944376
 H          2.6170221436       -1.7301670794       -0.8056331512
 H          2.9685372462       -0.2051455288       -1.6511895427
 H          0.3834178960       -0.9465552280       -0.8324371953
 C         -3.8361066958        0.9695318113        0.6944050787
 C         -2.7902887630        0.1574648543       -0.0654022118
 C         -2.0196297341        1.0467974163       -1.0380063856
 C         -1.8410531242       -0.5264296371        0.9250168837
 O         -0.9959267471       -1.4855791311        0.3226632461
 H         -3.3536815612        1.7353879310        1.2975368645
 H         -4.4223005441        0.3319710222        1.3528587289
 H         -4.5125780988        1.4573573109       -0.0027991387
 H         -3.3042317941       -0.6274822609       -0.6364900183
 H         -1.5653685105        1.8776412013       -0.5021291936
 H         -2.6908279826        1.4518769684       -1.7916178545
 H         -1.2330168072        0.4894401177       -1.5403941312
 H         -2.4239864412       -1.0031503791        1.7263242771
 H         -1.1721353172        0.2096307851        1.3766671356
 H         -1.5420410085       -2.1128062673       -0.1653872727
