  30
        -35.46040432
 C          3.4242631890       -0.9110311267        0.4019541087
 C          2.4410591878        0.2524556538        0.2749488901
 C          3.1778028449        1.5858316859        0.3624691759
 C          1.6725386080        0.1793443287       -1.0506238470
 O          0.8386125167       -0.9571929677       -1.1555824097
 H          4.1109443424       -0.9271398947       -0.4435876634
 H          2.9045288074       -1.8663395265        0.4526961179
 H          4.0080337962       -0.8076140960        1.3130064623
 H          1.7146194843        0.1893729887        1.0915926275
 H          2.4801102383        2.4166435840        0.2918778664
 H          3.9017421707        1.6746763389       -0.4454092094
 H          3.7078140956        1.6628620686        1.3083142935
 H          2.3792361442        0.2041556510       -1.8919932406
 H          1.0016097625        1.0367466201       -1.1404331339
 H          1.3902887882       -1.7449449034       -1.0908176233
 C         -3.9660822373       -0.0537670407       -0.6925247710
 C         -2.5097910267        0.1410494187       -0.2828097872
 C         -2.2473780641        1.5857351344        0.1343492139
 C         -2.1410337201       -0.8162024706        0.8578503963
 O         -0.7782363366       -0.7689963016        1.1915762335
 H         -4.6266860723        0.1534538178        0.1469500706
 H         -4.1406252554       -1.0757182128       -1.0220838582
 H         -4.2238699556        0.6190616676       -1.5071560067
 H         -1.8647344842       -0.1010326223       -1.1367213192
 H         -2.3746687691        2.2601152429       -0.7097205905
 H         -1.2331677632        1.6855733019        0.5140122053
 H         -2.9374944231        1.8816524364        0.9218712359
 H         -2.4270049229       -1.8423747504        0.5760942357
 H         -2.6856880719       -0.5473001558        1.7675466740
 H         -0.2723013371       -0.8680713801        0.3657012198
