  18
        -20.07612150
 C         -2.4617362923       -0.4052118414       -0.3759888369
 C         -1.2112562079        0.4683304742       -0.3975885740
 C          0.0657044451       -0.2355289295        0.0713168731
 C         -0.0257211762       -0.6989639368        1.5197128967
 C          0.4699845906       -1.3857141812       -0.8411563722
 S          1.4302617263        1.0308211539        0.0443311879
 H         -2.3472894094       -1.2713562724       -1.0224269334
 H         -3.3112847618        0.1726212426       -0.7327018385
 H         -2.6853361456       -0.7465265795        0.6309102665
 H         -1.3759372542        1.3404319083        0.2398723300
 H         -1.0556630740        0.8322133693       -1.4174373484
 H         -0.3256399164        0.1239039856        2.1650846288
 H          0.9428754628       -1.0627969510        1.8564662176
 H         -0.7476386967       -1.5061453073        1.6168785395
 H          1.4563430668       -1.7531431159       -0.5661479886
 H          0.4981053914       -1.0661907834       -1.8816231408
 H         -0.2372009994       -2.2073419652       -0.7489953346
 H          1.3871959680        1.2526375975       -1.2675200193
