  16
        -14.67429024
 C         -1.9542255732        0.5540843155        0.5141483289
 C         -2.0067718365       -0.5609334472       -0.5196487861
 H         -2.8537911023        1.1637570362        0.4660317017
 H         -1.0953611567        1.1981082905        0.3400704038
 H         -1.8753390012        0.1419433906        1.5178729886
 H         -2.0868418505       -0.1487589127       -1.5232408249
 H         -2.8665308778       -1.2042305291       -0.3457611554
 H         -1.1080809599       -1.1715619123       -0.4710338376
 C          1.9811007991        0.5601485738       -0.5156588379
 C          1.9799018350       -0.5533072516        0.5211264199
 H          1.1158461920        0.4759416430       -1.1693449518
 H          2.8782755909        0.5118306412       -1.1289033803
 H          1.9514642729        1.5337700635       -0.0310899690
 H          2.0091302678       -1.5270341916        0.0368005571
 H          1.0843085684       -0.5029943215        1.1360845417
 H          2.8468577978       -0.4706781334        1.1729056949
