  16
        -14.67408943
 C         -1.8455022331        0.0320591337        0.6727027332
 C         -2.2769790897       -0.0353855812       -0.7844806132
 H         -1.3065642382       -0.8702039629        0.9530395224
 H         -2.7107364904        0.1299655970        1.3247631338
 H         -1.1934747253        0.8864167259        0.8402237004
 H         -2.9305293615       -0.8888766247       -0.9508661022
 H         -1.4117341515       -0.1358317254       -1.4358736539
 H         -2.8150510665        0.8668920867       -1.0669430049
 C          1.8584703342        0.0375277358       -0.6763683766
 C          2.2640291971       -0.0341014196        0.7881195431
 H          2.7178327202        0.2706609560       -1.3013423385
 H          1.1067006801        0.8087248150       -0.8277802176
 H          1.4447857149       -0.9133338764       -1.0050137016
 H          2.6799530634        0.9158696010        1.1168968045
 H          3.0146686356       -0.8066135799        0.9405013271
 H          1.4039322314       -0.2648601339        1.4127128717
