  16
        -14.67419534
 C         -2.0646053737        0.6249797482        0.4491668597
 C         -1.9344719204       -0.6165370921       -0.4202142063
 H         -2.6633699349        1.3826272534       -0.0515942525
 H         -1.0858486252        1.0487295058        0.6616679455
 H         -2.5435769387        0.3812303484        1.3948755880
 H         -1.4591607557       -0.3734862043       -1.3679971804
 H         -2.9135641834       -1.0417156118       -0.6292744093
 H         -1.3328589240       -1.3722565688        0.0793821913
 C          2.0359973133        0.6170517179       -0.4518415789
 C          1.9630984443       -0.6254527141        0.4229764882
 H          1.0621049127        0.8403738470       -0.8812940527
 H          2.7424273429        0.4711809924       -1.2660711088
 H          2.3590314644        1.4774502865        0.1304298932
 H          1.6381726086       -1.4843850612       -0.1598641321
 H          1.2585761036       -0.4793291787        1.2387317460
 H          2.9378469024       -0.8509160630        0.8499642994
