  16
        -14.67403763
 C         -1.8319950963        0.2835748732        0.6169948958
 C         -2.3009203860       -0.3344037293       -0.6916423609
 H         -1.3311059706       -0.4602943309        1.2324296467
 H         -2.6760166256        0.6794742602        1.1773451365
 H         -1.1354533638        1.0973993312        0.4285961016
 H         -3.0057758414       -1.1411332053       -0.5032888038
 H         -1.4589785404       -0.7414739661       -1.2474484418
 H         -2.7925562490        0.4107938087       -1.3132672904
 C          2.0191211032        0.3598852606       -0.6441802372
 C          2.1138558204       -0.3088741024        0.7189581493
 H          1.0073658052        0.2879528933       -1.0360147962
 H          2.6944277608       -0.1155886726       -1.3520345387
 H          2.2841776977        1.4125381081       -0.5735629853
 H          1.8408477264       -1.3595277154        0.6493321853
 H          1.4445443320        0.1720215263        1.4286755627
 H          3.1277910812       -0.2443345057        1.1076837048
