  16
        -14.67424583
 C         -1.9823266471        0.7088119161        0.2759344505
 C         -1.9917363257       -0.7085841055       -0.2769731198
 H         -1.9771261460        1.4356415208       -0.5335088555
 H         -1.1001467070        0.8753740589        0.8897714857
 H         -2.8635416463        0.8868421414        0.8883769005
 H         -1.1115278627       -0.8870588718       -0.8903382554
 H         -2.8749264864       -0.8747107855       -0.8899194977
 H         -1.9968284654       -1.4354194008        0.5324734840
 C          1.9836507269        0.7080061843       -0.2774402394
 C          1.9904121673       -0.7082340289        0.2784818912
 H          1.1060751751        0.8722472271       -0.8984692134
 H          2.8693812677        0.8858370433       -0.8833888451
 H          1.9713259165        1.4365388987        0.5303985380
 H          2.0032158621       -1.4367176005       -0.5293871684
 H          1.1053962159       -0.8866997782        0.8848728111
 H          2.8687038126       -0.8718740485        0.8990830750
