  16
        -14.67401989
 C         -2.2090274901        0.7700602891        0.2178759606
 C         -2.0040444737       -0.6544588814       -0.2751737398
 H         -2.0377763049        0.8319630228        1.2903649618
 H         -3.2242321733        1.1037174600        0.0146096654
 H         -1.5200286493        1.4499665655       -0.2782838012
 H         -2.6958972332       -1.3338106106        0.2179000616
 H         -0.9903113512       -0.9882944474       -0.0675480203
 H         -2.1713896354       -0.7160086023       -1.3482804723
 C          1.7892752097        0.6044932703       -0.1701909490
 C          2.4236805670       -0.7199567259        0.2273793418
 H          1.1575239986        0.9817220338        0.6308214529
 H          1.1772425713        0.4835298949       -1.0612602578
 H          2.5554139724        1.3475718653       -0.3803399516
 H          1.6590746677       -1.4636852827        0.4418842239
 H          3.0390198597       -0.5985258573        1.1160960103
 H          3.0527448632       -1.0997899981       -0.5746603315
