  16
        -14.67405607
 C         -2.0184179375        0.7310446944        0.1063995172
 C         -2.1492830513       -0.7706131037       -0.1010482578
 H         -2.3932023708        1.2706778214       -0.7605420440
 H         -0.9778004967        1.0078929015        0.2576620483
 H         -2.5869253411        1.0477484959        0.9780284517
 H         -1.5799346729       -1.0880579608       -0.9720605454
 H         -3.1900547985       -1.0471110211       -0.2546396185
 H         -1.7784283023       -1.3114544867        0.7672332526
 C          2.1651901561        0.7690508907       -0.1066476354
 C          2.0025288212       -0.7294777601        0.1013695104
 H          1.5778959250        1.1032817499       -0.9592952501
 H          3.2074842354        1.0195842197       -0.2913353900
 H          1.8344495010        1.3164429490        0.7736188975
 H          2.5859382581       -1.0622973297        0.9569622502
 H          2.3405657683       -1.2761073735       -0.7762052459
 H          0.9597979280       -0.9806562281        0.2797016615
