  16
        -14.67412950
 C         -2.3015760485        0.7879836693       -0.0038222384
 C         -1.8205191541       -0.6552072846        0.0040970772
 H         -2.9116175895        0.9931763801        0.8731470172
 H         -2.8998709415        0.9873681172       -0.8901708548
 H         -1.4567949464        1.4731140629       -0.0004247234
 H         -2.6651231954       -1.3407854319        0.0004543016
 H         -1.2227075181       -0.8540432198        0.8907196013
 H         -1.2105752433       -0.8596406209       -0.8729288898
 C          1.8190737215        0.6547428607        0.0028628405
 C          2.3030226650       -0.7875147290       -0.0031331569
 H          1.2176013637        0.8524575293        0.8872700347
 H          1.2119438600        0.8578968864       -0.8764272039
 H          2.6623181907        1.3420091256        0.0022554804
 H          1.4595834054       -1.4743071046       -0.0014190988
 H          2.9113593004       -0.9911006057        0.8754080743
 H          2.9038692066       -0.9861989397       -0.8879376311
