  16
        -14.67412938
 C         -2.3057647821        0.7872089839       -0.0012178618
 C         -1.8182032137       -0.6538187936        0.0026438574
 H         -1.4640657517        1.4761131431        0.0059377365
 H         -2.9182239235        0.9866949195        0.8754024024
 H         -2.9034674383        0.9869588934       -0.8879026575
 H         -1.2209959268       -0.8528996905        0.8896297865
 H         -1.2058531892       -0.8526462545       -0.8740221903
 H         -2.6596999757       -1.3432008039       -0.0046861601
 C          1.8210117990        0.6547621887       -0.0011499606
 C          2.3029576878       -0.7881537762       -0.0002838209
 H          1.2269038251        0.8598998531        0.8865341279
 H          1.2071220648        0.8522840243       -0.8770205856
 H          2.6651574312        1.3407994557       -0.0136107785
 H          2.9172937433       -0.9861990080        0.8753210927
 H          2.8971612125       -0.9940354647       -0.8878991296
 H          1.4586501607       -1.4737524172        0.0124091398
