  16
        -14.67422061
 C         -1.9151453747       -0.3819073097        0.6668917606
 C         -2.0571856360        0.3417001734       -0.6637906774
 H         -1.6238751818        0.3129435351        1.4513278112
 H         -1.1575823598       -1.1597571127        0.6016782861
 H         -2.8567047208       -0.8454283997        0.9529354870
 H         -1.1184266091        0.8125240093       -0.9465101143
 H         -2.8207074033        1.1139047629       -0.5999963576
 H         -2.3409351207       -0.3544367832       -1.4502321620
 C          2.0622927839       -0.3443973815       -0.6648833908
 C          1.9100724671        0.3845806779        0.6617870513
 H          2.7665391602       -1.1680605186       -0.5705901075
 H          2.4292679301        0.3320312402       -1.4337525771
 H          1.1069838723       -0.7478781235       -0.9927388711
 H          2.8675359203        0.7805714592        0.9930746940
 H          1.5351441673       -0.2895934930        1.4286645243
 H          1.2123523086        1.2134635194        0.5660828567
