  16
        -14.67402548
 C         -2.0478955331        0.7478439261       -0.0003888192
 C         -2.1349521349       -0.7710603004        0.0012352585
 H         -2.5546706050        1.1589472263       -0.8707218253
 H         -1.0102446965        1.0719332963       -0.0241760095
 H         -2.5144032547        1.1586973751        0.8922594267
 H         -1.6651730498       -1.1826525210       -0.8896342291
 H         -3.1729729264       -1.0957798033        0.0198001505
 H         -1.6340816752       -1.1825835419        0.8750583177
 C          2.1349520422        0.7710603049       -0.0012350266
 C          2.0478956256       -0.7478439311        0.0003885872
 H          1.6340810945        1.1825837832       -0.8750576927
 H          3.1729727871        1.0957799432       -0.0198003417
 H          1.6651733729        1.1826521672        0.8896348490
 H          2.5144030327       -1.1586970270       -0.8922599817
 H          1.0102448312       -1.0719334314        0.0241760885
 H          2.5546710913       -1.1589474621        0.8707212486
