  16
        -14.67420558
 C         -1.9176181356        0.4037876663        0.6281246750
 C         -2.0595540181       -0.4364064292       -0.6322674025
 H         -1.3848872650        1.3280037000        0.4153138567
 H         -1.3652079302       -0.1401686446        1.3908494784
 H         -2.8955513666        0.6588902132        1.0304427976
 H         -1.0821553391       -0.6922212679       -1.0349853062
 H         -2.6114742783        0.1078827049       -1.3955307886
 H         -2.5932709355       -1.3598586217       -0.4183968457
 C          2.0381854259        0.4362100319       -0.6302224057
 C          1.9390036391       -0.4036924088        0.6343498484
 H          2.3095282164       -0.1838297528       -1.4819975852
 H          2.7938275979        1.2104864891       -0.5172704930
 H          1.0868026978        0.9168531377       -0.8461626637
 H          2.8924565773       -0.8789642247        0.8543159813
 H          1.1880435021       -1.1821045245        0.5195995249
 H          1.6616869943        0.2162360594        1.4840041895
