%chk=35.chk
%nprocshared=4
%mem=8000mb
#T wB97XD/def2svpp opt=tight freq int(grid=ultrafine) scf=(verytight,qc) Volume=tight

Monomer

0 1
 C          0.8576954903       -1.4472717163       -1.3737911298
 C          0.0676529953       -0.5259782047       -0.4436902235
 C         -1.1593113008        0.0479193144       -1.1856071750
 O         -1.9413355841        0.9081749620       -0.3972696824
 C         -0.3925964157       -1.3143907093        0.8094296262
 O         -1.0105270954       -0.5152152084        1.7740879022
 C          0.9454948984        0.6168262276        0.0389266720
 O          2.1172342421        0.2048718924        0.5129090948
 O          0.6301278119        1.7810960061        0.0178984479
 H          1.1754534941       -0.9073991389       -2.2630782194
 H          0.2344233841       -2.2836109416       -1.6806338174
 H          1.7369772984       -1.8324911120       -0.8655500504
 H         -1.8162622121       -0.7741252559       -1.4827884782
 H         -0.8173999033        0.5644883805       -2.0932141687
 H         -1.3844454822        1.6719609339       -0.1763709970
 H          0.4763760162       -1.7676936810        1.2942514068
 H         -1.0662903918       -2.1180682586        0.4736886088
 H         -1.7182114056       -0.0162069734        1.3316498873
 H          2.6249105098        0.9567246058        0.8580386751


