  38
        -58.56376973
 N         -1.5446962835       -0.2666642414        1.1302554872
 C         -2.2444173695        0.5880034976        0.1631777051
 C         -3.7365936448        0.7013300587        0.5455584748
 O         -4.3030524849       -0.5691018541        0.7237519419
 C         -1.5745930465        1.9700851678        0.1432403737
 O         -0.2249913173        1.9106747193       -0.2144276822
 C         -2.1272031376       -0.0513287206       -1.2417633183
 O         -2.4953766273       -1.4104137600       -1.2657482313
 H         -2.1607658349       -1.0491933579        1.3477176064
 H         -1.4022448078        0.2460275667        1.9956913584
 H         -4.2753336582        1.2751912313       -0.2215330764
 H         -3.8446968980        1.2225917117        1.5026478838
 H         -4.0952821909       -1.0932580155       -0.0678639932
 H         -1.6914007635        2.4370233956        1.1347475647
 H         -2.0681904868        2.6088036984       -0.5935096089
 H          0.2251909548        1.2428273633        0.3576495097
 H         -1.1060430143        0.0829097251       -1.6085407274
 H         -2.8067779920        0.4713586172       -1.9213065586
 H         -1.7319375412       -1.9335498185       -0.9863741608
 N          1.5443756357        0.2659299683        1.1303061876
 C          2.2447210025       -0.5881537054        0.1631462951
 C          3.7370900908       -0.6996565542        0.5453510189
 O          4.3016140281        0.5715677508        0.7242187512
 C          1.5759638761       -1.9707324842        0.1434039766
 O          0.2260002093       -1.9122295396       -0.2132152733
 C          2.1267306929        0.0507704744       -1.2419293109
 O          2.4946809355        1.4098917976       -1.2664661704
 H          2.1603058365        1.0483275892        1.3486750613
 H          1.4013127954       -0.2472998072        1.9953260398
 H          4.2765987448       -1.2721479778       -0.2221846186
 H          3.8460994227       -1.2213309128        1.5020992218
 H          4.0933634376        1.0955736891       -0.0673983598
 H          1.6939095580       -2.4377816118        1.1347233840
 H          2.0694437128       -2.6089431926       -0.5938574498
 H         -0.2240893362       -1.2440771621        0.3584853216
 H          1.1054519650       -0.0837887847       -1.6082446232
 H          2.8061220484       -0.4720605684       -1.9215438596
 H          1.7310420302        1.9330375658       -0.9876148020
