#T wB97XD/def2svpp opt=tight freq int(grid=ultrafine) scf=(verytight,qc)

Comment gs min

0 1
C          0.90818        0.01681        0.06230
C          2.43928        0.03697        0.03880
C          2.96003       -0.61347       -1.24547
C          2.95250        1.47532        0.15083
S          3.06676       -0.90899        1.48039
H          0.50088        0.58409       -0.78401
H          0.50839        0.46851        0.97656
H          0.51315       -1.00335       -0.01381
H          2.61046       -0.06269       -2.12742
H          2.60887       -1.64703       -1.35012
H          4.05559       -0.62128       -1.28251
H          2.60007        2.08035       -0.69301
H          4.04820        1.51759        0.14411
H          2.59927        1.96334        1.06668
H          2.50297       -2.08317        1.16201
