  13
        -18.61508024
 O         -1.3920677357       -0.8762809320       -0.0813515267
 C         -1.3211948919        0.5357398769       -0.1161472536
 C          0.0307673449        1.0829746758        0.3636539909
 C          1.2077609292        0.3983183028       -0.3342881886
 O          1.4945351897       -0.8684955474        0.2098493527
 H         -0.9621855406       -1.2306484178       -0.8675399087
 H         -2.1160114225        0.8908934385        0.5447711860
 H         -1.5282973666        0.9002595542       -1.1300805919
 H          0.1315970333        0.9211865069        1.4385281920
 H          0.0560078202        2.1557638275        0.1724185101
 H          2.1182858969        0.9915894963       -0.2143516376
 H          1.0017441492        0.3113905354       -1.4148170939
 H          0.6574177806       -1.2805528326        0.4654595708
