  13
        -18.61539867
 O         -2.4446173212       -0.2211253505        0.1014108188
 C         -1.2597650329        0.4282903771       -0.2890004544
 C         -0.0043760004       -0.2910518892        0.2057164331
 C          1.2720463751        0.3894988040       -0.2900896120
 O          2.4380073049       -0.2177539878        0.2097041533
 H         -2.4707614037       -0.2684744529        1.0637949883
 H         -1.2536607426        1.4694439335        0.0655726209
 H         -1.2813377608        0.4387248555       -1.3814290417
 H         -0.0298609385       -1.3267903651       -0.1448065991
 H          0.0053426383       -0.3054106129        1.2993205605
 H          1.3089726490        1.4227476905        0.0634666213
 H          1.2820676962        0.4010066896       -1.3898642979
 H          2.4499584047       -1.1415320196       -0.0652523664
