  13
        -18.61485285
 O         -2.4459768244       -0.2026754145        0.1314205105
 C         -1.2598580274        0.4471466886       -0.2533336518
 C         -0.0038016906       -0.3213090144        0.1590455634
 C          1.2707737304        0.4358425308       -0.2156692530
 O          2.4390836677       -0.2236479170        0.2055672941
 H         -2.4628040001       -1.0828825490       -0.2609865721
 H         -1.2861169683        1.4184384019        0.2453272536
 H         -1.2486667737        0.6177730631       -1.3407459921
 H         -0.0007721997       -1.3009854850       -0.3327328926
 H         -0.0207311162       -0.4861311679        1.2380929800
 H          1.2900985038        1.4073853661        0.2827664195
 H          1.2942671887        0.6054558370       -1.3030118437
 H          2.4593706364       -1.1050614339       -0.1843349644
