  13
        -18.61686946
 O         -1.3623928715       -0.8685686199        0.0203726011
 C         -1.2746107208        0.5233698905       -0.2290157344
 C          0.0172483431        1.0644008993        0.3806050601
 C          1.2601603585        0.4432249037       -0.2625251970
 O          1.4615690810       -0.8900966287        0.1231825503
 H         -2.1884360647       -1.2062465633       -0.3386068874
 H         -2.1350296724        1.0424335077        0.2157397498
 H         -1.2787123855        0.7125577647       -1.3126229763
 H          0.0270332179        0.8397808746        1.4482038391
 H          0.0366052639        2.1462693626        0.2464563799
 H          2.1549714098        0.9891146707        0.0496998853
 H          1.1771745411        0.5176400514       -1.3595141512
 H          0.5987278560       -1.3275904431        0.0938572386
