  13
        -18.61285023
 O         -1.7984537622       -0.7623686086       -0.0116833088
 C         -1.3926897290        0.5746615364        0.1326959085
 C          0.0182692753        0.8250965050       -0.4049399949
 C          1.1078017796        0.2111286443        0.4964952346
 O          1.9736107030       -0.6617825393       -0.1903404563
 H         -1.0813869260       -1.3360984189        0.2844250360
 H         -1.4438339383        0.8818689855        1.1891780562
 H         -2.1196527837        1.1642599692       -0.4313046029
 H          0.1721697408        1.8992210979       -0.5123841192
 H          0.0857272333        0.3687956732       -1.3957912500
 H          0.6578165247       -0.4051457697        1.2806104555
 H          1.6827295552        1.0058154383        0.9911345883
 H          2.4432466826       -0.1684541584       -0.8713126660
