  13
        -18.61364893
 O         -1.8331691966       -0.5930084799        0.3818091299
 C         -1.1326359547        0.1999645169       -0.5480753206
 C          0.0217166759        0.9774079060        0.0876315948
 C          1.1138092647        0.0320315643        0.5804580166
 O          1.8163958755       -0.4555411421       -0.5432586094
 H         -2.1888850242       -0.0195759171        1.0701922917
 H         -1.8179976135        0.8992709020       -1.0484443027
 H         -0.7364492548       -0.4947095292       -1.2905062057
 H         -0.3485907219        1.5711200583        0.9271029586
 H          0.4523617700        1.6476941803       -0.6558003632
 H          0.6507924797       -0.7929997274        1.1384165354
 H          1.7995653158        0.5699250587        1.2525602855
 H          2.4210231225       -1.1483472786       -0.2608660188
