  13
        -18.61301566
 O         -1.4402493969       -0.8425537896        0.2695974394
 C         -1.1279732827        0.3327551146       -0.4526668039
 C         -0.0288028887        1.1540063603        0.2252527713
 C          1.3527935402        0.4557680722        0.1801599269
 O          1.3260600407       -0.8656595151       -0.2895733727
 H         -1.7908783332       -0.5932483853        1.1323663236
 H         -2.0256420106        0.9521363180       -0.5792382574
 H         -0.7957233338       -0.0076220419       -1.4354263499
 H         -0.3196832046        1.3267107773        1.2651121260
 H          0.0332739991        2.1246642172       -0.2657862376
 H          1.8042240552        0.4860425882        1.1844742288
 H          2.0215556258        0.9898797293       -0.5001770352
 H          0.5496036017       -1.3112395027        0.0788934878
