  13
        -18.61615378
 O         -2.2715727924       -0.2467897527       -0.1824979905
 C         -0.9784955715       -0.2618890433        0.3726497947
 C         -0.0302682633        0.7259410076       -0.3119368493
 C          1.4021831632        0.5747088988        0.2012221994
 O          1.9350059840       -0.7064474653       -0.0229035808
 H         -2.6425542235        0.6370650673       -0.0833594665
 H         -0.6113538152       -1.2814048875        0.2370821031
 H         -1.0147446524       -0.0497170963        1.4508561375
 H         -0.3643896349        1.7507278325       -0.1311195309
 H         -0.0561915344        0.5466281055       -1.3906345706
 H          1.4304557204        0.7140587351        1.2846794394
 H          2.0387909458        1.3422967270       -0.2642596304
 H          1.8743253641       -0.9067357221       -0.9641444965
