  13
        -18.61565924
 O         -1.9632969802       -0.6571528819       -0.1245105376
 C         -1.3764375744        0.6190457381       -0.2082668950
 C          0.0276719338        0.6724144972        0.3955117653
 C          0.9924949438       -0.2553630634       -0.3475101815
 O          2.2962022216       -0.2251385464        0.1827846099
 H         -2.0228089635       -0.9116936083        0.8034464566
 H         -2.0150009530        1.3674705536        0.2835849333
 H         -1.3342117136        0.8480596391       -1.2752117149
 H         -0.0191467020        0.3775206661        1.4499868877
 H          0.4004798449        1.6964852847        0.3485437577
 H          1.0926857355        0.0687905651       -1.3855505766
 H          0.5926363573       -1.2789039627       -0.3431383973
 H          2.2664569997       -0.5092606934        1.1031550643
