  13
        -18.61330050
 O         -1.7086507251       -0.6212754902        0.4025805904
 C         -1.1579375421        0.2854948288       -0.5300799036
 C          0.0113493069        1.0218619768        0.1213880666
 C          1.1281503738        0.0742986619        0.5725249047
 O          1.8100251981       -0.5350831849       -0.4983130101
 H         -2.5034942044       -1.0158457664        0.0312167020
 H         -1.9121935227        1.0201846159       -0.8451050664
 H         -0.8166220874       -0.2510441124       -1.4295077726
 H         -0.3580258159        1.5551547628        0.9972121740
 H          0.4120208074        1.7428265433       -0.5924025438
 H          0.7047453120       -0.6814969857        1.2454145241
 H          1.8878304905        0.6422668117        1.1141924194
 H          1.1962424527       -1.1210039338       -0.9537396539
