  13
        -18.61436729
 O         -1.9278712594       -0.5391789655        0.3878737847
 C         -1.1535781471        0.1893319056       -0.5327690504
 C          0.0033181352        0.9547635074        0.1186528709
 C          1.1543539710        0.0452787635        0.5619232160
 O          1.9245199291       -0.4409731283       -0.5095959152
 H         -1.3532470767       -1.1343791527        0.8825756115
 H         -1.8473074031        0.8950451162       -0.9950912875
 H         -0.7740380322       -0.4773124721       -1.3245787641
 H         -0.3817535964        1.4900606805        0.9876407143
 H          0.3927534325        1.6838363681       -0.5932142062
 H          0.7695942522       -0.7923749550        1.1666658784
 H          1.8524243556        0.6115346584        1.1823953512
 H          1.3459859469       -0.8910821581       -1.1355720469
