  13
        -18.61410860
 O         -1.9082996915       -0.6568369018       -0.0973542998
 C         -1.3658946789        0.6424600761       -0.2074716106
 C          0.0198228801        0.6463133726        0.4278026592
 C          0.9960537218       -0.2357324228       -0.3539978387
 O          2.2849495585       -0.2519092577        0.2122046984
 H         -2.7751585057       -0.6745247282       -0.5144988476
 H         -2.0086814526        1.3685091568        0.3113279248
 H         -1.2899763803        0.9390924598       -1.2633767356
 H         -0.0679989950        0.2685200172        1.4492193781
 H          0.3988388202        1.6685842664        0.4652506595
 H          1.1281411732        0.1561502436       -1.3655280461
 H          0.5858718172       -1.2516819652       -0.4218696570
 H          2.2211405655       -0.5981562057        1.1092286198
