  13
        -18.61928203
 O         -1.3958514406       -0.8883593928        0.0178372220
 C         -1.2593625005        0.4932352115       -0.2442508938
 C          0.0155897162        1.0918475926        0.3551108204
 C          1.2766521476        0.4617064014       -0.2478278481
 O          1.4191197351       -0.8945039480        0.0846018189
 H         -1.4484647394       -1.0175023307        0.9722422850
 H         -2.1372232098        1.0391655150        0.1285600292
 H         -1.2387121755        0.5785231389       -1.3338454651
 H          0.0214650713        0.9303139758        1.4363216152
 H          0.0244758933        2.1654904194        0.1663545474
 H          2.1672682139        0.9627444429        0.1409230930
 H          1.2559327581        0.5905648744       -1.3411142205
 H          0.5940787209       -1.3394294262       -0.1633316418
  13
        -18.61686946
 O         -1.3623928715       -0.8685686199        0.0203726011
 C         -1.2746107208        0.5233698905       -0.2290157344
 C          0.0172483431        1.0644008993        0.3806050601
 C          1.2601603585        0.4432249037       -0.2625251970
 O          1.4615690810       -0.8900966287        0.1231825503
 H         -2.1884360647       -1.2062465633       -0.3386068874
 H         -2.1350296724        1.0424335077        0.2157397498
 H         -1.2787123855        0.7125577647       -1.3126229763
 H          0.0270332179        0.8397808746        1.4482038391
 H          0.0366052639        2.1462693626        0.2464563799
 H          2.1549714098        0.9891146707        0.0496998853
 H          1.1771745411        0.5176400514       -1.3595141512
 H          0.5987278560       -1.3275904431        0.0938572386
  13
        -18.61623940
 O         -1.7533559461       -0.5718911364       -0.5432531390
 C         -1.1569941238        0.1305558898        0.5177784983
 C         -0.0132200355        1.0485748899        0.0675430838
 C          1.1816880103        0.2633974626       -0.4827300129
 O          1.6874696532       -0.6855452268        0.4263161788
 H         -1.1065564410       -1.1939982396       -0.8943035960
 H         -0.7841047682       -0.5679850907        1.2796855004
 H         -1.9554166608        0.7326536437        0.9581506730
 H          0.3054484919        1.6479621825        0.9238161415
 H         -0.3754869459        1.7214763966       -0.7103809122
 H          1.9705167844        0.9679404781       -0.7842404967
 H          0.8889558191       -0.3087674801       -1.3671702627
 H          1.9657901934       -0.2291453388        1.2281306839
  13
        -18.61615378
 O         -2.2715727924       -0.2467897527       -0.1824979905
 C         -0.9784955715       -0.2618890433        0.3726497947
 C         -0.0302682633        0.7259410076       -0.3119368493
 C          1.4021831632        0.5747088988        0.2012221994
 O          1.9350059840       -0.7064474653       -0.0229035808
 H         -2.6425542235        0.6370650673       -0.0833594665
 H         -0.6113538152       -1.2814048875        0.2370821031
 H         -1.0147446524       -0.0497170963        1.4508561375
 H         -0.3643896349        1.7507278325       -0.1311195309
 H         -0.0561915344        0.5466281055       -1.3906345706
 H          1.4304557204        0.7140587351        1.2846794394
 H          2.0387909458        1.3422967270       -0.2642596304
 H          1.8743253641       -0.9067357221       -0.9641444965
  13
        -18.61565924
 O         -1.9632969802       -0.6571528819       -0.1245105376
 C         -1.3764375744        0.6190457381       -0.2082668950
 C          0.0276719338        0.6724144972        0.3955117653
 C          0.9924949438       -0.2553630634       -0.3475101815
 O          2.2962022216       -0.2251385464        0.1827846099
 H         -2.0228089635       -0.9116936083        0.8034464566
 H         -2.0150009530        1.3674705536        0.2835849333
 H         -1.3342117136        0.8480596391       -1.2752117149
 H         -0.0191467020        0.3775206661        1.4499868877
 H          0.4004798449        1.6964852847        0.3485437577
 H          1.0926857355        0.0687905651       -1.3855505766
 H          0.5926363573       -1.2789039627       -0.3431383973
 H          2.2664569997       -0.5092606934        1.1031550643
  13
        -18.61539867
 O         -2.4446173212       -0.2211253505        0.1014108188
 C         -1.2597650329        0.4282903771       -0.2890004544
 C         -0.0043760004       -0.2910518892        0.2057164331
 C          1.2720463751        0.3894988040       -0.2900896120
 O          2.4380073049       -0.2177539878        0.2097041533
 H         -2.4707614037       -0.2684744529        1.0637949883
 H         -1.2536607426        1.4694439335        0.0655726209
 H         -1.2813377608        0.4387248555       -1.3814290417
 H         -0.0298609385       -1.3267903651       -0.1448065991
 H          0.0053426383       -0.3054106129        1.2993205605
 H          1.3089726490        1.4227476905        0.0634666213
 H          1.2820676962        0.4010066896       -1.3898642979
 H          2.4499584047       -1.1415320196       -0.0652523664
  13
        -18.61524720
 O         -2.0409385912       -0.6269966642       -0.0801194548
 C         -1.3728464167        0.6033911925       -0.2212931149
 C          0.0176709585        0.6194765271        0.4193633315
 C          1.0126074449       -0.2878039645       -0.3094544506
 O          2.3259423214       -0.1483300055        0.1750654052
 H         -1.5550826074       -1.3059912620       -0.5597848251
 H         -2.0128897426        1.3341054316        0.2787086246
 H         -1.2928806861        0.8801717648       -1.2822720409
 H         -0.0701586007        0.3018142662        1.4617455064
 H          0.3996236033        1.6415011929        0.4017731006
 H          1.0655012364       -0.0156537754       -1.3673121936
 H          0.6945396504       -1.3395611815       -0.2339513349
 H          2.3295332037       -0.3318753175        1.1212715489
  13
        -18.61508024
 O         -1.3920677357       -0.8762809320       -0.0813515267
 C         -1.3211948919        0.5357398769       -0.1161472536
 C          0.0307673449        1.0829746758        0.3636539909
 C          1.2077609292        0.3983183028       -0.3342881886
 O          1.4945351897       -0.8684955474        0.2098493527
 H         -0.9621855406       -1.2306484178       -0.8675399087
 H         -2.1160114225        0.8908934385        0.5447711860
 H         -1.5282973666        0.9002595542       -1.1300805919
 H          0.1315970333        0.9211865069        1.4385281920
 H          0.0560078202        2.1557638275        0.1724185101
 H          2.1182858969        0.9915894963       -0.2143516376
 H          1.0017441492        0.3113905354       -1.4148170939
 H          0.6574177806       -1.2805528326        0.4654595708
  13
        -18.61507934
 O         -1.8214378681       -0.5120704102       -0.5620653640
 C         -1.1517047254        0.0721517372        0.5273768813
 C          0.0036725256        0.9795972666        0.0957161029
 C          1.1536523068        0.1657025132       -0.5040654338
 O          1.8162910319       -0.6256311119        0.4506922046
 H         -2.1598100108        0.1875083868       -1.1324263416
 H         -0.7606211017       -0.7639895985        1.1112918697
 H         -1.8569360394        0.6415150762        1.1516067032
 H          0.3628110586        1.5382817060        0.9638622172
 H         -0.3513631422        1.6980327565       -0.6476304452
 H          1.8645778479        0.8410350408       -1.0037727752
 H          0.7582682152       -0.5368772401       -1.2409741439
 H          2.1578000165       -0.0538327842        1.1475456618
  13
        -18.61485285
 O         -2.4459768244       -0.2026754145        0.1314205105
 C         -1.2598580274        0.4471466886       -0.2533336518
 C         -0.0038016906       -0.3213090144        0.1590455634
 C          1.2707737304        0.4358425308       -0.2156692530
 O          2.4390836677       -0.2236479170        0.2055672941
 H         -2.4628040001       -1.0828825490       -0.2609865721
 H         -1.2861169683        1.4184384019        0.2453272536
 H         -1.2486667737        0.6177730631       -1.3407459921
 H         -0.0007721997       -1.3009854850       -0.3327328926
 H         -0.0207311162       -0.4861311679        1.2380929800
 H          1.2900985038        1.4073853661        0.2827664195
 H          1.2942671887        0.6054558370       -1.3030118437
 H          2.4593706364       -1.1050614339       -0.1843349644
  13
        -18.61441586
 O         -2.2506038059       -0.2032888747        0.1927736166
 C         -0.9772229389       -0.2136801217       -0.4180860371
 C         -0.0413762650        0.6654371535        0.4059504107
 C          1.3917821940        0.6102728695       -0.1210880667
 O          1.9452848656       -0.6829960550       -0.0742531890
 H         -2.8505173872       -0.7511346017       -0.3228193422
 H         -1.0368662615        0.1736918185       -1.4452517114
 H         -0.5754614967       -1.2358082924       -0.4594098764
 H         -0.0723524514        0.3221689914        1.4429180564
 H         -0.4004133449        1.6943188513        0.3833896503
 H          2.0162303673        1.3144856602        0.4479274808
 H          1.4192986520        0.8980330925       -1.1747697653
 H          1.8995451234       -1.0029308758        0.8342304595
  13
        -18.61436729
 O         -1.9278712594       -0.5391789655        0.3878737847
 C         -1.1535781471        0.1893319056       -0.5327690504
 C          0.0033181352        0.9547635074        0.1186528709
 C          1.1543539710        0.0452787635        0.5619232160
 O          1.9245199291       -0.4409731283       -0.5095959152
 H         -1.3532470767       -1.1343791527        0.8825756115
 H         -1.8473074031        0.8950451162       -0.9950912875
 H         -0.7740380322       -0.4773124721       -1.3245787641
 H         -0.3817535964        1.4900606805        0.9876407143
 H          0.3927534325        1.6838363681       -0.5932142062
 H          0.7695942522       -0.7923749550        1.1666658784
 H          1.8524243556        0.6115346584        1.1823953512
 H          1.3459859469       -0.8910821581       -1.1355720469
  13
        -18.61410860
 O         -1.9082996915       -0.6568369018       -0.0973542998
 C         -1.3658946789        0.6424600761       -0.2074716106
 C          0.0198228801        0.6463133726        0.4278026592
 C          0.9960537218       -0.2357324228       -0.3539978387
 O          2.2849495585       -0.2519092577        0.2122046984
 H         -2.7751585057       -0.6745247282       -0.5144988476
 H         -2.0086814526        1.3685091568        0.3113279248
 H         -1.2899763803        0.9390924598       -1.2633767356
 H         -0.0679989950        0.2685200172        1.4492193781
 H          0.3988388202        1.6685842664        0.4652506595
 H          1.1281411732        0.1561502436       -1.3655280461
 H          0.5858718172       -1.2516819652       -0.4218696570
 H          2.2211405655       -0.5981562057        1.1092286198
  13
        -18.61364893
 O         -1.8331691966       -0.5930084799        0.3818091299
 C         -1.1326359547        0.1999645169       -0.5480753206
 C          0.0217166759        0.9774079060        0.0876315948
 C          1.1138092647        0.0320315643        0.5804580166
 O          1.8163958755       -0.4555411421       -0.5432586094
 H         -2.1888850242       -0.0195759171        1.0701922917
 H         -1.8179976135        0.8992709020       -1.0484443027
 H         -0.7364492548       -0.4947095292       -1.2905062057
 H         -0.3485907219        1.5711200583        0.9271029586
 H          0.4523617700        1.6476941803       -0.6558003632
 H          0.6507924797       -0.7929997274        1.1384165354
 H          1.7995653158        0.5699250587        1.2525602855
 H          2.4210231225       -1.1483472786       -0.2608660188
  13
        -18.61330050
 O         -1.7086507251       -0.6212754902        0.4025805904
 C         -1.1579375421        0.2854948288       -0.5300799036
 C          0.0113493069        1.0218619768        0.1213880666
 C          1.1281503738        0.0742986619        0.5725249047
 O          1.8100251981       -0.5350831849       -0.4983130101
 H         -2.5034942044       -1.0158457664        0.0312167020
 H         -1.9121935227        1.0201846159       -0.8451050664
 H         -0.8166220874       -0.2510441124       -1.4295077726
 H         -0.3580258159        1.5551547628        0.9972121740
 H          0.4120208074        1.7428265433       -0.5924025438
 H          0.7047453120       -0.6814969857        1.2454145241
 H          1.8878304905        0.6422668117        1.1141924194
 H          1.1962424527       -1.1210039338       -0.9537396539
  13
        -18.61327061
 O         -1.9007565067       -0.6727509530       -0.1450971258
 C         -1.3879462014        0.5973412770        0.1903933610
 C          0.0427972634        0.7016976109       -0.3261954276
 C          0.9657056080       -0.2966609365        0.3752442048
 O          2.2839309985       -0.2570561306       -0.1146743913
 H         -2.8028978838       -0.7475499154        0.1809956045
 H         -1.3976647129        0.7391945186        1.2817237594
 H         -1.9990416071        1.3900835220       -0.2658174201
 H          0.4033352585        1.7211719359       -0.1640746803
 H          0.0484268709        0.4941652453       -1.3968544018
 H          0.6095913025       -1.3113931989        0.1917587307
 H          0.9532371927       -0.1106458205        1.4603978086
 H          2.6242752854        0.6395325770       -0.0179152059
  13
        -18.61316704
 O         -2.4348422816       -0.2689671993        0.0935239497
 C         -1.2658942078        0.4233425843       -0.2687776573
 C          0.0056017274       -0.2943803089        0.1819359817
 C          1.2643713493        0.4263738387       -0.2862261401
 O          2.3829772722       -0.2694575509        0.2181809064
 H         -2.4257164703       -0.4145936382        1.0463444373
 H         -1.2810593712        1.4447445593        0.1420468530
 H         -1.2959237879        0.4927449225       -1.3589152468
 H          0.0115154888       -1.3111975118       -0.2131975701
 H          0.0312346639       -0.3588944389        1.2726037911
 H          1.2575124091        1.4630460651        0.0835358092
 H          1.2886608736        0.4553133488       -1.3850250094
 H          3.1884738210        0.1579277559       -0.0895987785
  13
        -18.61301566
 O         -1.4402493969       -0.8425537896        0.2695974394
 C         -1.1279732827        0.3327551146       -0.4526668039
 C         -0.0288028887        1.1540063603        0.2252527713
 C          1.3527935402        0.4557680722        0.1801599269
 O          1.3260600407       -0.8656595151       -0.2895733727
 H         -1.7908783332       -0.5932483853        1.1323663236
 H         -2.0256420106        0.9521363180       -0.5792382574
 H         -0.7957233338       -0.0076220419       -1.4354263499
 H         -0.3196832046        1.3267107773        1.2651121260
 H          0.0332739991        2.1246642172       -0.2657862376
 H          1.8042240552        0.4860425882        1.1844742288
 H          2.0215556258        0.9898797293       -0.5001770352
 H          0.5496036017       -1.3112395027        0.0788934878
  13
        -18.61285023
 O         -1.7984537622       -0.7623686086       -0.0116833088
 C         -1.3926897290        0.5746615364        0.1326959085
 C          0.0182692753        0.8250965050       -0.4049399949
 C          1.1078017796        0.2111286443        0.4964952346
 O          1.9736107030       -0.6617825393       -0.1903404563
 H         -1.0813869260       -1.3360984189        0.2844250360
 H         -1.4438339383        0.8818689855        1.1891780562
 H         -2.1196527837        1.1642599692       -0.4313046029
 H          0.1721697408        1.8992210979       -0.5123841192
 H          0.0857272333        0.3687956732       -1.3957912500
 H          0.6578165247       -0.4051457697        1.2806104555
 H          1.6827295552        1.0058154383        0.9911345883
 H          2.4432466826       -0.1684541584       -0.8713126660
  13
        -18.61269566
 O         -2.2950205467       -0.1002447191        0.1815840719
 C         -1.0131447018       -0.2490622515       -0.3868536163
 C         -0.0312026308        0.5801812633        0.4379604075
 C          1.3806336533        0.5869968391       -0.1496840329
 O          2.0543013288       -0.6413849593       -0.0147619572
 H         -2.9309597689       -0.6181238983       -0.3221273862
 H         -1.0115784638        0.1046700383       -1.4299863649
 H         -0.7194367697       -1.3105079419       -0.3819603707
 H         -0.0020881610        0.1852367332        1.4540651783
 H         -0.4062701667        1.6027511762        0.4825581854
 H          1.9973972449        1.3088752333        0.3899192915
 H          1.3400969635        0.8875683865       -1.2076989127
 H          1.5465389499       -1.3288987453       -0.4581722318
  13
        -18.61203228
 O         -1.8451529916       -0.6420888961       -0.3128013664
 C         -1.0721329596        0.2015727962        0.5204672515
 C         -0.0366843055        0.9149579564       -0.3579371972
 C          1.4000098159        0.5782618154        0.0459882733
 O          1.6357545657       -0.8053970317        0.1224896958
 H         -2.4737986231       -1.1307006037        0.2274937225
 H         -0.5566574637       -0.3951619690        1.2849014150
 H         -1.7211624471        0.9289140957        1.0266433970
 H         -0.1705088266        1.9955523338       -0.3239995341
 H         -0.2117519119        0.5840619254       -1.3845064471
 H          1.6170649363        0.9681492509        1.0440801600
 H          2.0947734857        1.0481563836       -0.6669039582
 H          1.2759305694       -1.2181867958       -0.6715852212
  13
        -18.61173301
 O         -1.8028102347       -0.5550553745        0.4169794328
 C         -1.1152037491        0.1994579693       -0.5622487074
 C          0.0033677587        0.9791771683        0.1207869449
 C          1.1163702187        0.0495891143        0.5929448622
 O          1.7990246945       -0.4498042073       -0.5409163129
 H         -2.4733725688       -1.0912700664       -0.0169722212
 H         -1.8054720521        0.9003433844       -1.0538003464
 H         -0.6792158689       -0.4576772012       -1.3251605504
 H         -0.4083979565        1.5077742595        0.9802165186
 H          0.4191889190        1.6982253010       -0.5846236290
 H          0.6756409917       -0.7698578916        1.1744959397
 H          1.8112616572        0.6058917156        1.2386101572
 H          2.4664247771       -1.0788656522       -0.2505948112
  13
        -18.61148388
 O         -1.9091509749       -0.6514174826       -0.1544091259
 C         -1.3788497299        0.6127552978        0.1858135982
 C          0.0578890372        0.6978859291       -0.3141700540
 C          0.9522277919       -0.3350556169        0.3631978894
 O          2.2705846088       -0.1626419940       -0.1136856272
 H         -2.8273626405       -0.6956768645        0.1302712996
 H         -1.4014978942        0.7533902412        1.2770044935
 H         -1.9718202948        1.4136029229       -0.2782187442
 H          0.4532634681        1.6951010952       -0.1201124402
 H          0.0768944951        0.5203931757       -1.3892205476
 H          0.5789023128       -1.3400392310        0.1308616207
 H          0.9198810174       -0.1941572129        1.4546187358
 H          2.8284808682       -0.8561517509        0.2519587273
  13
        -18.61032992
 O         -2.3815645064       -0.2985188079        0.1332123957
 C         -1.2577904947        0.4542297292       -0.2652413406
 C         -0.0037124294       -0.2966481181        0.1650909826
 C          1.2690230700        0.4428162499       -0.2285953760
 O          2.3738445896       -0.3183467162        0.2050767821
 H         -3.1835116950        0.1633571016       -0.1312617512
 H         -1.2751668723        1.4498769461        0.2034675782
 H         -1.2535034131        0.5910994077       -1.3573179420
 H         -0.0016718601       -1.2851922996       -0.2938412314
 H         -0.0198907687       -0.4338916545        1.2461897139
 H          1.2805296823        1.4393339996        0.2386088982
 H          1.2987866403        0.5775210825       -1.3205331619
 H          3.1873577084        0.1351605795       -0.0376971219
