%nprocshared=4
%mem=8000mb
%chk=9.chk
%nprocshared=4
%mem=8000mb
#T wB97XD/def2svpp opt=tight freq int(grid=ultrafine) scf=(verytight,qc) Volume=tight

Monomer

0 1
O        1.372147   -0.931639    0.023588
C        1.254728    0.466484    0.231262
C       -0.033377    1.047148   -0.345876
C       -1.293501    0.399196    0.229710
O       -1.408558   -0.957374   -0.101097
H        1.460457   -1.096678   -0.925943
H        2.137689    0.996314   -0.177123
H        1.271502    0.600818    1.325786
H       -0.036810    0.922108   -1.445897
H       -0.049549    2.134688   -0.146995
H       -2.188304    0.903618   -0.171710
H       -1.304614    0.552342    1.332076
H       -0.566180   -1.378075    0.139297


