  14
  -13.667558970000000        3.7037849920352250E-002 !gc
 C          0.9332639346       -1.1067658663        0.1083256296
 C         -0.0000135772       -0.0000062754       -0.3759820525
 C         -1.4251367698       -0.2548280508        0.1083281658
 C          0.4918828033        1.3615973616        0.1083240786
 H          1.9463646518       -0.9392085416       -0.2506538016
 H          0.5979704229       -2.0768311239       -0.2520076671
 H          0.9548573294       -1.1336656539        1.1959714705
 H         -0.0000437254       -0.0000261450       -1.4721433213
 H         -1.4592014876       -0.2600003322        1.1959829727
 H         -1.7866003529       -1.2159667158       -0.2506013590
 H         -2.0975523229        0.5205789917       -0.2520265292
 H          1.4998459996        1.5560062136       -0.2515916752
 H          0.5038617431        1.3939170334        1.1959883085
 H         -0.1594592497        2.1552300086       -0.2511089074
  14
  -13.667558970000000        3.7037849920352250E-002 !gc
 C          0.9333152162       -1.1068055465        0.1083169777
 C          0.0000127711       -0.0000435601       -0.3759895501
 C         -1.4251439370       -0.2547545986        0.1083332533
 C          0.4918178315        1.3615939361        0.1083306431
 H          0.9554963542       -1.1331835550        1.1959633647
 H          1.9462713680       -0.9397140703       -0.2512653507
 H          0.5976029085       -2.0769702260       -0.2513368249
 H          0.0000204221       -0.0000426382       -1.4721601243
 H         -2.0974004538        0.5211671074       -0.2513178698
 H         -1.4591468880       -0.2608499960        1.1959975816
 H         -1.7869368046       -1.2154855791       -0.2513776266
 H          0.5035518098        1.3940160473        1.1959918255
 H         -0.1593629615        2.1552871622       -0.2513029522
 H          1.4998818208        1.5558921655       -0.2513289360
  14
  -13.667558970000000        3.7037849920352250E-002 !gc
 C          0.9332628072       -1.1068163143        0.1083106126
 C          0.0000155984       -0.0000010032       -0.3759389464
 C         -1.4251440742       -0.2548295381        0.1083228473
 C          0.4918673128        1.3616522099        0.1083097295
 H          0.9553193905       -1.1333643874        1.1959553263
 H          1.9462265130       -0.9395930317       -0.2511365452
 H          0.5976739939       -2.0769415715       -0.2515844205
 H         -0.0000053399       -0.0000778206       -1.4721029797
 H         -2.0976140455        0.5209017388       -0.2515805151
 H         -1.4591233416       -0.2606244244        1.1960261567
 H         -1.7867696280       -1.2157682430       -0.2511205683
 H          1.5000769585        1.5557642993       -0.2510785736
 H          0.5032754065        1.3942637621        1.1959946810
 H         -0.1590795019        2.1553758717       -0.2516634282
  14
  -13.667558970000000        3.7037849920352250E-002 !gc
 C          0.9332721117       -1.1067874268        0.1083142649
 C         -0.0000023893       -0.0000014933       -0.3759409319
 C         -1.4251458855       -0.2548320339        0.1083191404
 C          0.4918842381        1.3616170240        0.1083113533
 H          0.9555875238       -1.1330191808        1.1959597482
 H          1.9461776275       -0.9397787624       -0.2514425125
 H          0.5973818308       -2.0769439898       -0.2512262215
 H          0.0000133349        0.0000174655       -1.4720991448
 H         -1.7872430970       -1.2151776563       -0.2521569459
 H         -2.0972642044        0.5215638324       -0.2505798560
 H         -1.4589617154       -0.2618475399        1.1959904625
 H          1.5000584902        1.5557962686       -0.2510945507
 H          0.5032969375        1.3941356033        1.1959478988
 H         -0.1591429565        2.1553007925       -0.2515847822
  14
  -13.667558959999999        3.7037457989776264E-002 !gc
 C          0.9333008435       -1.1068197143        0.1083072278
 C          0.0000185017       -0.0000215645       -0.3759344076
 C         -1.4251513900       -0.2547893231        0.1083220461
 C          0.4918422167        1.3616239122        0.1083130708
 H          0.5975870446       -2.0769715659       -0.2514701137
 H          0.9554620283       -1.1332676140        1.1959620591
 H          1.9462492273       -0.9396164694       -0.2512938032
 H          0.0000041660        0.0000155691       -1.4721005395
 H         -1.4593666175       -0.2595527104        1.1959522503
 H         -1.7864591900       -1.2161092688       -0.2502297525
 H         -2.0976676959        0.5203591129       -0.2524636265
 H         -0.1595082760        2.1552613794       -0.2511231088
 H          1.4998256095        1.5560516852       -0.2515351284
 H          0.5037524870        1.3939096019        1.1959668761
  14
  -13.667558959999999        3.7037457989776264E-002 !mtd8
 C          0.9333111784       -1.1067928092        0.1083118379
 C          0.0000000506       -0.0000354555       -0.3759597275
 C         -1.4251601403       -0.2547796098        0.1083226881
 C          0.4918491181        1.3616013895        0.1083218973
 H          0.5977956811       -2.0769316726       -0.2516109551
 H          0.9551674535       -1.1333904150        1.1959960609
 H          1.9463637261       -0.9394854209       -0.2508992168
 H          0.0000011720       -0.0000318874       -1.4721235182
 H         -1.4589319340       -0.2617062829        1.1959772052
 H         -1.7872490036       -1.2151573409       -0.2520377076
 H         -2.0973020895        0.5215701379       -0.2506133057
 H          0.5039712772        1.3939412889        1.1959518544
 H         -0.1595643802        2.1552139430       -0.2510854765
 H          1.4997456337        1.5560549310       -0.2517558652
  14
  -13.667558959999999        3.7037457989776264E-002 !gc
 C          0.9332564405       -1.1067912599        0.1083184536
 C          0.0000040133       -0.0000005187       -0.3759687849
 C         -1.4251282209       -0.2548249997        0.1083266658
 C          0.4918658365        1.3616198483        0.1083164420
 H          0.9561908606       -1.1325882218        1.1959594320
 H          1.9459994545       -0.9402059431       -0.2520579068
 H          0.5969989706       -2.0770439223       -0.2505821629
 H          0.0000014081       -0.0000014488       -1.4721362161
 H         -1.4588682906       -0.2620222814        1.1959833590
 H         -1.7872837495       -1.2151161404       -0.2522399571
 H         -2.0972259165        0.5216440470       -0.2503812523
 H          0.5026675264        1.3943956007        1.1959572791
 H         -0.1587418253        2.1553975293       -0.2521229540
 H          1.5002845696        1.5555041966       -0.2505338416
  14
  -13.667558959999999        3.7037457989776264E-002 !gc
 C          0.9332520561       -1.1067920254        0.1083207405
 C          0.0000057276        0.0000043829       -0.3759657519
 C         -1.4251312378       -0.2548368579        0.1083284908
 C          0.4918761787        1.3616270006        0.1083168484
 H          0.5973719462       -2.0769518504       -0.2512361474
 H          0.9555458721       -1.1330511221        1.1959784147
 H          1.9461597416       -0.9397635602       -0.2514385270
 H          0.0000046699       -0.0000133929       -1.4721289833
 H         -2.0972547226        0.5215680504       -0.2504830792
 H         -1.4588691925       -0.2619539863        1.1959742071
 H         -1.7872297746       -1.2151458799       -0.2521406930
 H          0.5026474540        1.3944429862        1.1959824217
 H         -0.1587336923        2.1553842853       -0.2522191478
 H          1.5003252291        1.5554546741       -0.2505326730
  14
  -13.667558959999999        3.7037457989776264E-002 !gc
 C          0.9332377697       -1.1067720872        0.1083232267
 C         -0.0000233954        0.0000096775       -0.3759623388
 C         -1.4251323171       -0.2548630480        0.1083210531
 C          0.4919087965        1.3616362858        0.1083163345
 H          0.5969538561       -2.0770219331       -0.2505692420
 H          0.9561924975       -1.1325687948        1.1959747963
 H          1.9459638427       -0.9402146389       -0.2520936547
 H         -0.0001193612       -0.0000633301       -1.4721220539
 H         -1.7867816899       -1.2157560432       -0.2511491315
 H         -2.0975207688        0.5208978780       -0.2514978736
 H         -1.4589724391       -0.2607878004        1.1959508094
 H          0.5033692693        1.3942425827        1.1959675055
 H         -0.1590725808        2.1553560553       -0.2515969994
 H          1.5000963693        1.5557869871       -0.2510839070
  14
  -13.667558959999999        3.7037457989776264E-002 !gc
 C          0.9332221601       -1.1067734344        0.1083284551
 C         -0.0000015559        0.0000270181       -0.3759765783
 C         -1.4251283060       -0.2548796416        0.1083305809
 C          0.4919100661        1.3616273243        0.1083153493
 H          0.9555548395       -1.1329902312        1.1959894293
 H          1.9461259557       -0.9397812774       -0.2514624904
 H          0.5973137715       -2.0769445943       -0.2511813646
 H          0.0000734129        0.0000823927       -1.4721437019
 H         -1.7872771605       -1.2151459480       -0.2522817750
 H         -2.0972140559        0.5215869170       -0.2504265058
 H         -1.4589278651       -0.2620632356        1.1959992985
 H          0.5032003463        1.3941675913        1.1959721218
 H         -0.1590291381        2.1553509990       -0.2516876685
 H          1.5001517185        1.5557222947       -0.2509915106
  14
  -13.667558959999999        3.7037457989776264E-002 !mtd14
 C          0.9332630784       -1.1067367702        0.1083286382
 C         -0.0000034001       -0.0000152941       -0.3760142931
 C         -1.4251251134       -0.2548148354        0.1083345528
 C          0.4918775474        1.3615617840        0.1083307241
 H          1.9461626665       -0.9398411694       -0.2515192827
 H          0.5972021055       -2.0768310889       -0.2511145868
 H          0.9555920456       -1.1329679893        1.1960050216
 H          0.0000226025       -0.0000247165       -1.4721805605
 H         -2.0974410832        0.5209153349       -0.2515811019
 H         -1.4591056204       -0.2604966654        1.1960243741
 H         -1.7867862159       -1.2157415755       -0.2510453981
 H         -0.1590241823        2.1553190806       -0.2517106793
 H          1.5001398125        1.5556193991       -0.2508855920
 H          0.5030935288        1.3941103531        1.1960103451
  14
  -13.667558959999999        3.7037457989776264E-002 !gc
 C          0.9332672134       -1.1068158626        0.1083129842
 C          0.0000140776       -0.0000004675       -0.3759505458
 C         -1.4251371891       -0.2548232687        0.1083240725
 C          0.4918610472        1.3616386919        0.1083111392
 H          0.9562390987       -1.1326045614        1.1959715694
 H          1.9460085579       -0.9402089645       -0.2521246100
 H          0.5969789860       -2.0770739528       -0.2506020331
 H          0.0000078794        0.0000051987       -1.4721178915
 H         -1.4590146212       -0.2610972927        1.1959680584
 H         -1.7870274063       -1.2155138632       -0.2514828067
 H         -2.0973899886        0.5211792954       -0.2511574357
 H          1.5003998007        1.5554500170       -0.2503054063
 H          0.5023869106        1.3944504945        1.1959735243
 H         -0.1586505790        2.1554244362       -0.2523352671
  14
  -13.667558959999999        3.7037457989776264E-002 !gc
 C          0.9332711848       -1.1068076286        0.1083193517
 C          0.0000201823       -0.0000023315       -0.3759728855
 C         -1.4251345186       -0.2548126174        0.1083324648
 C          0.4918521234        1.3616189078        0.1083183029
 H          1.9460040880       -0.9401633110       -0.2521224777
 H          0.5969613418       -2.0770601267       -0.2506149263
 H          0.9562031835       -1.1325750479        1.1959843037
 H          0.0000066250        0.0000399775       -1.4721401876
 H         -1.7871560482       -1.2152401902       -0.2519167120
 H         -2.0972738843        0.5214785979       -0.2507151553
 H         -1.4589625152       -0.2616395781        1.1959885378
 H          0.5025668996        1.3943290632        1.1959869096
 H         -0.1587696112        2.1553933061       -0.2521686862
 H          1.5003130041        1.5554810393       -0.2504889454
  14
  -13.667558950000000        3.7037066063417265E-002 !gc
 C          0.9332440756       -1.1068018316        0.1083141611
 C          0.0000013840        0.0000102336       -0.3759411930
 C         -1.4251365411       -0.2548601662        0.1083193457
 C          0.4918953338        1.3616518033        0.1083074890
 H          1.9461423996       -0.9398270111       -0.2515149224
 H          0.5973522228       -2.0769751441       -0.2512053602
 H          0.9556222327       -1.1330454453        1.1959664155
 H         -0.0000045485       -0.0000066443       -1.4720973602
 H         -2.0974871344        0.5209199562       -0.2514570782
 H         -1.4590775858       -0.2607437554        1.1959738313
 H         -1.7868742725       -1.2157241186       -0.2511684199
 H          1.5005493199        1.5553246567       -0.2501010809
 H          0.5021800335        1.3946171052        1.1959756252
 H         -0.1584533411        2.1554599349       -0.2526096022
  14
  -13.667558950000000        3.7037066063417265E-002 !gc
 C          0.9332591479       -1.1067697497        0.1083235491
 C         -0.0000188449        0.0000019953       -0.3759750973
 C         -1.4251415934       -0.2548462010        0.1083229375
 C          0.4918992711        1.3616109976        0.1083184559
 H          1.9459400439       -0.9403218196       -0.2523261309
 H          0.5968263941       -2.0770878732       -0.2503024713
 H          0.9564492019       -1.1323499781        1.1959823405
 H         -0.0000508582        0.0000138073       -1.4721424304
 H         -1.7874058405       -1.2150984928       -0.2523178758
 H         -2.0972248071        0.5216851258       -0.2503095882
 H         -1.4588503584       -0.2620853786        1.1960081645
 H          1.5000507558        1.5557829440       -0.2511178949
 H          0.5033735974        1.3941662156        1.1959543212
 H         -0.1590840654        2.1553306963       -0.2515477232
  14
  -13.667558950000000        3.7037066063417265E-002 !mtd3
 C          0.9331528872       -1.1067740374        0.1083308480
 C          0.0000183587        0.0000587039       -0.3760110836
 C         -1.4251116113       -0.2549443629        0.1083366288
 C          0.4919379365        1.3616653198        0.1083075431
 H          1.9460440213       -0.9398838229       -0.2515429600
 H          0.5972530197       -2.0770148530       -0.2510383499
 H          0.9555883756       -1.1328792522        1.1959843843
 H          0.0000068828        0.0000153417       -1.4721621812
 H         -1.4589088983       -0.2611078051        1.1959847251
 H         -1.7869686481       -1.2156329600       -0.2513143605
 H         -2.0973380347        0.5209899750       -0.2511330844
 H          0.5032308832        1.3942323117        1.1960371112
 H         -0.1590828418        2.1553759679       -0.2516419484
 H          1.5002041855        1.5558380834       -0.2509838723
  14
  -13.667558950000000        3.7037066063417265E-002 !mtd8
 C          0.9332922827       -1.1067295109        0.1083203888
 C         -0.0000433792        0.0000192591       -0.3759054298
 C         -1.4252125296       -0.2548798382        0.1083080993
 C          0.4919708528        1.3615975366        0.1083078949
 H          0.5971856508       -2.0769122792       -0.2508782429
 H          0.9559615257       -1.1327648497        1.1959376723
 H          1.9460774744       -0.9399240452       -0.2517768733
 H         -0.0000882211        0.0000538326       -1.4720800545
 H         -2.0975075646        0.5211619382       -0.2511228795
 H         -1.4591270988       -0.2613709251        1.1959773110
 H         -1.7870959757       -1.2154802123       -0.2517636839
 H         -0.1597548126        2.1551111469       -0.2506269527
 H          1.4996557622        1.5562789821       -0.2522278385
 H          0.5046071407        1.3937576717        1.1959523736
  14
  -13.667558939999999        3.7036674141135977E-002 !mtd13
 C          0.9332810737       -1.1068938474        0.1083002676
 C          0.0000674724       -0.0000092908       -0.3759087707
 C         -1.4250696741       -0.2547625404        0.1083272723
 C          0.4917692289        1.3616422736        0.1083025395
 H          1.9461744515       -0.9398686169       -0.2516507232
 H          0.5972715768       -2.0770809218       -0.2513329839
 H          0.9556427968       -1.1331328509        1.1959732241
 H          0.0000166296       -0.0001123685       -1.4720601392
 H         -1.4592712865       -0.2597809104        1.1959774085
 H         -1.7866089613       -1.2159317165       -0.2504881029
 H         -2.0975002066        0.5206138908       -0.2522169261
 H         -0.1597536443        2.1552692279       -0.2509319625
 H          1.4996338481        1.5563528017       -0.2517055588
 H          0.5038215842        1.3939503788        1.1959415291
  14
  -13.667558939999999        3.7036674141135977E-002 !md3
 C          0.9332555328       -1.1068249928        0.1083102014
 C          0.0000118731        0.0000266535       -0.3759293488
 C         -1.4251419980       -0.2548483358        0.1083175243
 C          0.4918765396        1.3616550469        0.1082988301
 H          1.9461950871       -0.9397945757       -0.2513892521
 H          0.5974210163       -2.0769837498       -0.2513247372
 H          0.9555598809       -1.1332093804        1.1959647033
 H         -0.0000011747        0.0000242181       -1.4720916816
 H         -2.0975496454        0.5207814976       -0.2515538102
 H         -1.4590805222       -0.2605005303        1.1959666427
 H         -1.7868017955       -1.2157749942       -0.2509487422
 H          0.5019074698        1.3947236766        1.1959701243
 H         -0.1582959540        2.1554598073       -0.2528776823
 H          1.5006224303        1.5551742650       -0.2499225824
  14
  -13.667558939999999        3.7036674141135977E-002 !gc
 C          0.9331982607       -1.1067740780        0.1083293852
 C         -0.0000112610        0.0000399405       -0.3759686220
 C         -1.4251159415       -0.2549086046        0.1083265118
 C          0.4919318682        1.3616523518        0.1083114894
 H          0.5969996733       -2.0769950762       -0.2507452596
 H          0.9559594259       -1.1326786687        1.1959870769
 H          1.9459805861       -0.9400411484       -0.2519201968
 H         -0.0000695417        0.0000072675       -1.4721302552
 H         -2.0971502134        0.5218942904       -0.2498315473
 H         -1.4586922897       -0.2627368791        1.1959993118
 H         -1.7874965301       -1.2149173951       -0.2527963845
 H          1.5001894447        1.5556993226       -0.2509613251
 H          0.5031800605        1.3942908244        1.1959676672
 H         -0.1589354889        2.1553629454       -0.2517946655
  14
  -13.667558930000000        3.7036282223071579E-002 !gc
 C          0.9332864831       -1.1068241572        0.1083031988
 C          0.0000089339       -0.0000096073       -0.3759196836
 C         -1.4251551897       -0.2548164200        0.1083136730
 C          0.4918650650        1.3616513618        0.1083046753
 H          0.5967789344       -2.0771626250       -0.2501821674
 H          0.9565728630       -1.1322767264        1.1959525361
 H          1.9459459055       -0.9404662300       -0.2524484866
 H          0.0000214654       -0.0000143565       -1.4720815956
 H         -1.7875679038       -1.2147985871       -0.2528546276
 H         -2.0971862002        0.5220152273       -0.2498825330
 H         -1.4588343004       -0.2627202376        1.1959831948
 H         -0.1588534982        2.1554105468       -0.2519820005
 H          1.5002106635        1.5556211450       -0.2507120478
 H          0.5028490032        1.3943778138        1.1959452182
  14
  -13.667558930000000        3.7036282223071579E-002 !mtd4
 C          0.9333512470       -1.1066966581        0.1083237026
 C         -0.0000846146       -0.0000546637       -0.3759519925
 C         -1.4252440770       -0.2548165508        0.1083082729
 C          0.4919467670        1.3615355635        0.1083333795
 H          0.9562702607       -1.1327527512        1.1959645563
 H          1.9460692565       -0.9397873357       -0.2519544326
 H          0.5974307173       -2.0768464576       -0.2509953835
 H         -0.0002153763        0.0000486582       -1.4721112823
 H         -1.4593320372       -0.2596925801        1.1959828912
 H         -1.7866775705       -1.2161382852       -0.2503759226
 H         -2.0976931594        0.5205016669       -0.2523027182
 H         -0.1591339692        2.1552545262       -0.2513469835
 H          1.5000451785        1.5558073450       -0.2512364780
 H          0.5036022796        1.3939902358        1.1959762126
  14
  -13.667558930000000        3.7036282223071579E-002 !gc
 C          0.9333630609       -1.1067415732        0.1083191422
 C         -0.0000269662       -0.0000582425       -0.3759844796
 C         -1.4251860852       -0.2547398143        0.1083227096
 C          0.4918555215        1.3615339055        0.1083360114
 H          1.9463580060       -0.9396054173       -0.2511345655
 H          0.5977179287       -2.0769174937       -0.2514150953
 H          0.9554582910       -1.1331899851        1.1959885356
 H         -0.0000247208        0.0000521004       -1.4721463159
 H         -1.7873545481       -1.2149352510       -0.2521573021
 H         -2.0973545678        0.5215683779       -0.2504061035
 H         -1.4590563701       -0.2618812571        1.1958939421
 H         -0.1596746469        2.1551276640       -0.2508407102
 H          1.4996529630        1.5560276040       -0.2519272706
 H          0.5042117530        1.3938218768        1.1959834302
  14
  -13.667558930000000        3.7036282223071579E-002 !mtd1
 C          0.9332664846       -1.1067424549        0.1083122846
 C         -0.0000379256        0.0000317199       -0.3758983633
 C         -1.4251864921       -0.2548807344        0.1083019611
 C          0.4919428595        1.3615865686        0.1082946285
 H          0.9557169712       -1.1327469719        1.1959640808
 H          1.9461265697       -0.9398219831       -0.2515784592
 H          0.5973525603       -2.0769980993       -0.2509805732
 H         -0.0000616490       -0.0000093522       -1.4720579346
 H         -1.7869658092       -1.2156003505       -0.2515831239
 H         -2.0974389976        0.5210505686       -0.2512787506
 H         -1.4591897022       -0.2610997938        1.1959130693
 H         -0.1595727561        2.1552031554       -0.2505072359
 H          1.4995968271        1.5562150930       -0.2521017920
 H          0.5046156172        1.3938661363        1.1958451604
  14
  -13.667558930000000        3.7036282223071579E-002 !mtd5
 C          0.9332918415       -1.1067549779        0.1083052478
 C         -0.0000395634       -0.0000090768       -0.3759202896
 C         -1.4252295371       -0.2548783474        0.1082996340
 C          0.4919583773        1.3616254443        0.1083019119
 H          0.9557182482       -1.1329486430        1.1958784007
 H          1.9460605168       -0.9394286576       -0.2513589764
 H          0.5977250833       -2.0770102009       -0.2511681061
 H          0.0000121210       -0.0000456993       -1.4720649317
 H         -2.0973453043        0.5215998917       -0.2505265525
 H         -1.4591037578       -0.2620709550        1.1959784473
 H         -1.7874075062       -1.2152029059       -0.2522879607
 H         -0.1594714459        2.1553937846       -0.2507845004
 H          1.4998298689        1.5561695651       -0.2517057573
 H          0.5042071866        1.3937459046        1.1959604637
  14
  -13.667558919999999        3.7035890309084801E-002 !mtd7
 C          0.9332351668       -1.1066418296        0.1083276963
 C         -0.0000991631        0.0000548369       -0.3759483880
 C         -1.4252520127       -0.2549905862        0.1082936237
 C          0.4920934031        1.3615985113        0.1082996697
 H          0.5971780417       -2.0768697587       -0.2508172489
 H          0.9558654267       -1.1326351630        1.1959668935
 H          1.9460409652       -0.9398492855       -0.2517389990
 H         -0.0000205778        0.0000546767       -1.4721129524
 H         -1.7869194930       -1.2159129572       -0.2510402079
 H         -2.0976388242        0.5206412112       -0.2516380722
 H         -1.4593355673       -0.2607236131        1.1959193253
 H          1.5005022309        1.5557052396       -0.2508316548
 H          0.5033374996        1.3939421062        1.1959354344
 H         -0.1587403113        2.1553980962       -0.2515563163
  14
  -13.667558919999999        3.7035890309084801E-002 !mtd5
 C          0.9333383334       -1.1067343863        0.1083172097
 C         -0.0000633570       -0.0000039222       -0.3759570087
 C         -1.4252451684       -0.2548346358        0.1083036197
 C          0.4919511323        1.3615964551        0.1083141461
 H          0.5982787053       -2.0767217375       -0.2525366942
 H          0.9545477927       -1.1341390225        1.1960255885
 H          1.9466306386       -0.9389370496       -0.2501847347
 H          0.0000089844        0.0000184588       -1.4721268735
 H         -1.4591142126       -0.2613003762        1.1959856555
 H         -1.7872022367       -1.2154553610       -0.2516556470
 H         -2.0975358585        0.5212590278       -0.2510019546
 H          1.4999745348        1.5560720958       -0.2516766217
 H          0.5041849718        1.3936967291        1.1959994484
 H         -0.1595461875        2.1552270599       -0.2508059022
