%nprocshared=4
%mem=8000mb
%nprocshared=4
%mem=8000mb
%chk=5.chk
%nprocshared=4
%mem=8000mb
#T wB97XD/def2svpp opt=(tight,calcall) freq int(grid=ultrafine) scf=(verytight,qc) Volume=tight

Monomer

0 1
C       -1.349950    0.549842    0.095454
C       -0.000020    0.000010   -0.370762
C        1.151194    0.894090    0.095342
C        0.198770   -1.443951    0.095463
H       -2.185528   -0.073359   -0.269467
H       -1.512063    1.579712   -0.269020
H       -1.404086    0.571615    1.199992
H       -0.000091    0.000059   -1.477404
H        1.197402    0.929773    1.199853
H        1.029115    1.929478   -0.269163
H        2.124085    0.519701   -0.269477
H       -0.612085   -2.099315   -0.268903
H        0.206993   -1.501582    1.200003
H        1.156286   -1.856023   -0.269394



