  34
        -42.31390939
 C         -2.6061662976       -0.6247446897        1.3309061072
 C         -2.4647651507        0.1828003180        0.0415978388
 C         -3.8280549735        0.7542091856       -0.3737565250
 N         -1.4794973280        1.2478306947        0.2609128207
 C         -1.9227876558       -0.7159633403       -1.0932038621
 O         -0.8778193778       -1.5564854548       -0.7055305750
 H         -3.2468076959       -1.4852869828        1.1617225515
 H         -3.0412970278       -0.0120197884        2.1185141014
 H         -1.6312362424       -0.9783211607        1.6534980485
 H         -4.1859352821        1.4602328067        0.3747642515
 H         -4.5631660621       -0.0395300890       -0.4752833842
 H         -3.7468577080        1.2719526274       -1.3283772432
 H         -1.6662399397        1.7206735614        1.1392401027
 H         -1.5594857516        1.9397818913       -0.4786924109
 H         -1.6125070689       -0.0681046642       -1.9289191332
 H         -2.7220634937       -1.3727033211       -1.4481561095
 H         -0.1929450027       -1.0300827669       -0.2469201734
 C          3.6344271304       -0.2116532198        1.2678980815
 C          2.4208339996       -0.1646308684        0.3291756855
 C          2.6167185401       -1.1237854956       -0.8443572045
 N          1.1802310848       -0.5358153635        1.0124946618
 C          2.2316479314        1.2734230180       -0.1961799945
 O          1.1121622963        1.4099222506       -1.0190850476
 H          3.7861867472       -1.2253807496        1.6349829037
 H          3.4849565349        0.4477004984        2.1222247035
 H          4.5341548474        0.1037078802        0.7464352548
 H          3.5534295782       -0.9101998455       -1.3516317112
 H          1.8001690708       -1.0081420144       -1.5510549852
 H          2.6312997882       -2.1538164298       -0.4961989690
 H          0.9827451184        0.1118167226        1.7687385184
 H          1.2639566607       -1.4669499500        1.4060815298
 H          3.0976678899        1.5607473597       -0.7971941398
 H          2.1668768321        1.9616853171        0.6635819930
 H          0.3305804186        1.1156988573       -0.5137926440
