  34
        -42.31435669
 C         -3.8697848015       -0.1413460341        0.8762312249
 C         -2.5371879911        0.1295469056        0.1753725381
 C         -2.7554546728        1.0669225581       -1.0219771931
 N         -1.6061907770        0.6914660507        1.1523071661
 C         -1.9564712914       -1.2181971331       -0.3127061943
 O         -0.6380833232       -1.1372520556       -0.7871110508
 H         -4.5395473128       -0.6943994357        0.2228234976
 H         -4.3489331275        0.7961288269        1.1511789942
 H         -3.7004568610       -0.7205782282        1.7803534412
 H         -1.8155958450        1.2274347361       -1.5448216883
 H         -3.1301484620        2.0311764432       -0.6813968950
 H         -3.4754330394        0.6414736589       -1.7169082154
 H         -2.0329596874        1.4974325266        1.5978421822
 H         -0.7788230511        1.0266157743        0.6636767969
 H         -2.5622374409       -1.5880234402       -1.1447326889
 H         -2.0159925997       -1.9423690649        0.5099028088
 H         -0.0484459915       -0.9891126269       -0.0134372564
 C          3.8417024812       -0.0265331609        0.9044378832
 C          2.5052246211       -0.1641302533        0.1590108536
 C          2.6484567572       -1.1913607568       -0.9689556420
 N          1.4240728323       -0.6141856049        1.0346553608
 C          2.1177702661        1.2164175741       -0.4148261094
 O          0.7684253065        1.3458406831       -0.7673790282
 H          4.1715867049       -0.9978901242        1.2687402407
 H          3.7390257445        0.6454282491        1.7550998234
 H          4.6075979308        0.3712051579        0.2436847692
 H          2.9155056928       -2.1617058995       -0.5565556592
 H          3.4270769627       -0.8852502138       -1.6626257315
 H          1.7121157450       -1.3031872616       -1.5091002687
 H          1.1885329542        0.0924929356        1.7224379591
 H          1.6927089287       -1.4612665873        1.5220311085
 H          2.7620305159        1.4283741004       -1.2812110896
 H          2.2999621207        1.9918220670        0.3369498810
 H          0.4627175023        0.5259398296       -1.1892125398
