  34
        -42.31301965
 C         -3.9017729214       -0.4135461103        0.2974610580
 C         -2.5530675429        0.1294098654       -0.1777967968
 C         -2.7460117916        1.4211148220       -0.9812423896
 N         -1.6888643281        0.3134360171        0.9885537868
 C         -1.8472920394       -0.9300929781       -1.0477512444
 O         -1.4339410711       -2.0255537402       -0.2755978009
 H         -4.5685068910       -0.5588436055       -0.5483366020
 H         -4.3684224292        0.2800884447        0.9941448970
 H         -3.7572262304       -1.3674624574        0.7981553301
 H         -1.7783879064        1.8457168311       -1.2428362834
 H         -3.2952868060        2.1528128773       -0.3913759865
 H         -3.3008449979        1.2256583373       -1.8956845699
 H         -2.1475125299        0.9022292136        1.6747922161
 H         -0.8321607773        0.7868391266        0.7051198504
 H         -0.9769077790       -0.4653203306       -1.5379313432
 H         -2.5179578726       -1.3057061646       -1.8244099861
 H         -1.2236298768       -1.6491625070        0.5952472079
 C          3.6419431719       -0.7554187449       -0.7743910378
 C          2.6416926855       -0.0643142796        0.1594582938
 C          1.7618904191       -1.1028059205        0.8553261065
 N          3.2893688478        0.7511046496        1.1905260400
 C          1.7684866962        0.9169896162       -0.6451414016
 O          0.9400665199        1.6722007564        0.2020818932
 H          4.2750263548       -1.4374772929       -0.2096304192
 H          4.2772839881       -0.0216719965       -1.2689695288
 H          3.1165568032       -1.3246375904       -1.5364066406
 H          2.3750912599       -1.7858304548        1.4395344170
 H          1.2032706056       -1.6784358103        0.1231260665
 H          1.0602386195       -0.6088432619        1.5222719505
 H          3.9906745799        1.3552391433        0.7729090244
 H          3.7544079473        0.1603701682        1.8702180274
 H          1.1223472566        0.3771440272       -1.3400328086
 H          2.4182117894        1.5903143436       -1.2259957342
 H          1.4783892775        1.8598334398        0.9871255378
