  34
        -42.31361933
 C         -3.7142019756        0.4997370826       -0.6781708449
 C         -2.2803062838        0.1168720463       -0.2811089884
 C         -1.6237034077       -0.7139696270       -1.3810682595
 N         -1.4573386646        1.3156744297       -0.0671256689
 C         -2.3314789960       -0.6905324793        1.0379345178
 O         -1.1734360982       -1.4042652488        1.3447976036
 H         -4.3041895310       -0.3876274937       -0.8899977379
 H         -3.7049704527        1.1251394141       -1.5703229477
 H         -4.1998592066        1.0512301881        0.1262234543
 H         -1.6181293059       -0.1636874887       -2.3202302017
 H         -2.1720860171       -1.6406763479       -1.5212333636
 H         -0.6003771376       -0.9512292084       -1.0962865062
 H         -1.8691160207        1.8905125887        0.6622992619
 H         -1.4390494869        1.8684038029       -0.9192403835
 H         -3.1263740188       -1.4375557332        0.9559575987
 H         -2.5961041358       -0.0017236907        1.8575206882
 H         -0.4302702575       -0.7791079215        1.4257432079
 C          3.8737681228       -0.2760152656       -0.4585716846
 C          2.3713161757        0.0292567659       -0.3375689862
 C          1.9560146258        1.0097746972       -1.4401843556
 N          1.5421642480       -1.1607101126       -0.4735653735
 C          2.1081447413        0.6441812637        1.0532671677
 O          0.7659535306        0.6458077236        1.4483713172
 H          4.4626537849        0.6212734225       -0.2848790618
 H          4.1019337570       -0.6511422434       -1.4547986661
 H          4.1700033226       -1.0284585828        0.2704939709
 H          2.1114984775        0.5573867302       -2.4167966421
 H          2.5432122241        1.9226813863       -1.3809815612
 H          0.9021298201        1.2529231080       -1.3428061811
 H          1.5929509779       -1.7420098688        0.3548970805
 H          1.8379651858       -1.7120094965       -1.2709535580
 H          2.5151572536        1.6668305647        1.0684313289
 H          2.6365088092        0.0605528383        1.8145229237
 H          0.1913328538        0.9843566124        0.7266309484
