  34
        -42.31521913
 C         -3.5792866571       -0.1592415976        1.1994812655
 C         -2.3381179520        0.0149940152        0.3119875390
 C         -1.9535697568        1.4907860199        0.2275570465
 N         -1.1934536827       -0.7313064689        0.8369953879
 C         -2.6449070434       -0.5286683979       -1.1046326200
 O         -1.6949371585       -0.1902543454       -2.0701325610
 H         -4.4110859356        0.4280362937        0.8202547392
 H         -3.3627384155        0.1664395562        2.2159327334
 H         -3.8826552383       -1.2048249515        1.2278131523
 H         -1.6939614651        1.8740482887        1.2123680223
 H         -2.7825410167        2.0701431790       -0.1687841753
 H         -1.1038579953        1.6086395210       -0.4384259711
 H         -1.4542092607       -1.6907699971        1.0359669054
 H         -0.8333832850       -0.3071010997        1.6845338120
 H         -3.5894034590       -0.1009169090       -1.4522052633
 H         -2.7665626542       -1.6215517906       -1.0397060429
 H         -0.8285714988       -0.5553402427       -1.8098775861
 C          3.6392514427        1.2936246742        0.2100846674
 C          2.5302644555        0.2402720028        0.3522880414
 C          3.1248030116       -1.0972768717        0.7922039054
 N          1.5180940598        0.6317543581        1.3330462289
 C          1.8110591882        0.0733414768       -1.0011641470
 O          0.8377786429       -0.9302594446       -0.9872786382
 H          4.3769591400        0.9784899121       -0.5229118576
 H          4.1429968832        1.4412017667        1.1643372388
 H          3.2212956908        2.2465636376       -0.1119685776
 H          3.8714055127       -1.4294391520        0.0765310691
 H          2.3379494145       -1.8440441582        0.8481011346
 H          3.5926577338       -1.0035552888        1.7700069636
 H          1.1301251693        1.5369743482        1.0869387885
 H          1.9397144928        0.7140537171        2.2521334748
 H          2.5363096244       -0.2033779142       -1.7708739519
 H          1.3635071768        1.0398510599       -1.2856084673
 H          0.2661325869       -0.7965975844       -0.1896463443
