  34
        -42.31444209
 C         -2.8824937906        1.4347189390        0.3314314971
 C         -2.3420501928        0.1326642428       -0.2558651502
 C         -3.4163350147       -0.5775638196       -1.0899522562
 N         -1.1572450056        0.4527830891       -1.0576229427
 C         -1.8809331895       -0.7993229963        0.8885492093
 O         -1.1533450512       -1.9075275624        0.4308749024
 H         -3.6620355354        1.2267777557        1.0592371677
 H         -3.3002913446        2.0596644922       -0.4552439734
 H         -2.0788586643        1.9812490270        0.8181844640
 H         -3.6564136800        0.0017015921       -1.9808267961
 H         -4.3248994597       -0.7087422407       -0.5083046556
 H         -3.0560043693       -1.5593631277       -1.3918544168
 H         -1.3893638781        1.1476631188       -1.7590114330
 H         -0.8317694977       -0.3820151165       -1.5354997822
 H         -2.7590658987       -1.1964708767        1.4039265042
 H         -1.2909843607       -0.2155152443        1.6063333854
 H         -0.2798650211       -1.5888436647        0.1318055218
 C          3.8305099541       -0.4547804289        0.4832964547
 C          2.4220776897       -0.0553726986        0.0186104171
 C          2.5079685309        0.7197572760       -1.2950289752
 N          1.5783277327       -1.2414697881       -0.1876276688
 C          1.7574415890        0.8104503094        1.1150313778
 O          0.7190360959        1.6291774512        0.6712299729
 H          4.2786684447       -1.1512354576       -0.2246171988
 H          3.7866928313       -0.9341061313        1.4604223429
 H          4.4726914131        0.4185666306        0.5575935012
 H          3.0671534369        0.1500968740       -2.0351368372
 H          3.0080218279        1.6697350493       -1.1309757824
 H          1.5112827764        0.9169934703       -1.6785226330
 H          1.7129363991       -1.8836754191        0.5888584290
 H          1.8686613752       -1.7275523560       -1.0306919518
 H          2.5059603470        1.4837110009        1.5431905754
 H          1.4097619329        0.1369472982        1.9169044463
 H          0.0956446408        1.1072923936        0.1179936897
