  34
        -42.31380370
 C         -3.8773204284        0.4320550269       -0.3064783544
 C         -2.4375512139       -0.1013193491       -0.2368304156
 C         -2.3140591656       -1.3574438477       -1.1063357595
 N         -1.4602829040        0.8733913665       -0.7150244764
 C         -2.1077512684       -0.4393470730        1.2331328945
 O         -0.7409714736       -0.5492061104        1.5217468642
 H         -4.5711888224       -0.2816077267        0.1302732747
 H         -4.1656540628        0.6040187568       -1.3421613165
 H         -3.9631430296        1.3715381704        0.2371332675
 H         -2.4590618268       -1.1030671258       -2.1539604733
 H         -3.0659806871       -2.0882531211       -0.8206145128
 H         -1.3290242128       -1.8027141578       -0.9959917322
 H         -1.3962999189        1.6634907371       -0.0818725371
 H         -1.7296340781        1.2217737993       -1.6285377450
 H         -2.6290764638       -1.3704205824        1.5009377222
 H         -2.4839921220        0.3556976236        1.8858246119
 H         -0.2679455386       -0.9829127363        0.7855602209
 C          3.4274948509       -1.1826267443       -0.2847501430
 C          2.3528659881       -0.0972188740       -0.3480497322
 C          2.7227365672        0.9649876411       -1.3927452070
 N          1.0693426957       -0.7319879636       -0.6604006058
 C          2.2345837905        0.5784759840        1.0392419059
 O          1.1676645001        1.4839510436        1.1316692170
 H          4.3661284574       -0.7691605743        0.0740522291
 H          3.5920358161       -1.6108947172       -1.2718611445
 H          3.1129797850       -1.9756591755        0.3891001363
 H          2.0138821922        1.7884206200       -1.3347098439
 H          2.6952146118        0.5425200707       -2.3966580879
 H          3.7207224993        1.3538980686       -1.2077366336
 H          1.1717676699       -1.2900132691       -1.5028543668
 H          0.3796982475       -0.0028939338       -0.8590529533
 H          3.1480268164        1.1498240262        1.2282002303
 H          2.1440401273       -0.2002774922        1.8060340777
 H          0.3641376128        0.9527573439        1.2698886776
