  34
        -42.31331895
 C         -3.7488685003       -0.1713163948        0.9418079235
 C         -2.4590650174        0.0716155537        0.1416246127
 C         -2.5547452773        1.4146093217       -0.5901837300
 N         -1.2753069916        0.1172663598        0.9966897215
 C         -2.2788670945       -1.0818622259       -0.8721084582
 O         -0.9629296579       -1.2865913300       -1.2996989459
 H         -3.6649229595       -1.0787517527        1.5379772540
 H         -4.5982226719       -0.2784245115        0.2718835490
 H         -3.9410240367        0.6660373936        1.6107710778
 H         -2.6338931837        2.2261191842        0.1297338640
 H         -3.4312667158        1.4346441075       -1.2324382283
 H         -1.6656474778        1.5802091688       -1.1918859483
 H         -1.0227760315       -0.8080563177        1.3224118052
 H         -1.4340798673        0.7132909354        1.8000188386
 H         -2.9405746514       -0.8960749881       -1.7324477662
 H         -2.5884605741       -2.0266961520       -0.4112152228
 H         -0.5249731449       -0.4273313347       -1.4276223454
 C          4.0467829045        0.1703582385        0.5274293606
 C          2.5367896993       -0.0224004187        0.3162367868
 C          2.2624778215       -1.4111786646       -0.2599543542
 N          1.7771338933        0.1162230227        1.5570768473
 C          2.0159339944        1.0699822678       -0.6370894800
 O          0.6329107652        1.0102029787       -0.8382270769
 H          4.5793012945        0.0814601697       -0.4157555405
 H          4.4302490415       -0.5846162116        1.2120781068
 H          4.2536059116        1.1543933012        0.9467329317
 H          2.6184582619       -2.1787390153        0.4245996560
 H          2.7756368544       -1.5301618223       -1.2100836124
 H          1.1974018812       -1.5505491531       -0.4200062044
 H          1.9935859000        1.0003649243        2.0058873864
 H          2.0159058139       -0.6289979659        2.2011820638
 H          2.4891173623        0.9681276265       -1.6175348620
 H          2.2902436428        2.0559988383       -0.2255494802
 H          0.2070165907        0.7759766498        0.0201257474
