  34
        -42.31319697
 C         -3.7154957924       -0.0100660580        1.0827219815
 C         -2.3994671429        0.0785658125        0.2981802238
 C         -1.9573959175        1.5353734661        0.1652041414
 N         -1.3278315062       -0.6613249801        0.9807889056
 C         -2.6104303592       -0.5404596773       -1.1045733337
 O         -1.5843724265       -0.2910970373       -2.0167724539
 H         -4.4982289471        0.5577573204        0.5876872240
 H         -3.5836992593        0.3909297968        2.0869015000
 H         -4.0421643762       -1.0460932782        1.1630793829
 H         -1.7210269392        1.9550274290        1.1411993135
 H         -2.7491092057        2.1244539760       -0.2881101094
 H         -1.0805617143        1.5969072380       -0.4737007383
 H         -1.5868010773       -1.6404192414        1.0648976993
 H         -1.2143547395       -0.2944649511        1.9218145679
 H         -3.5100100186       -0.1009887108       -1.5440593038
 H         -2.7808059980       -1.6225736963       -0.9885265139
 H         -0.7655688146       -0.7245668909       -1.7123923921
 C          3.5735121430        1.3488830021       -0.0441588591
 C          2.5753798762        0.2421135054        0.2978860269
 C          3.3058530755       -1.0028948760        0.8014603170
 N          1.7230900427        0.7285373434        1.3778688402
 C          1.7612625802       -0.1110930848       -0.9708133874
 O          0.8040207835       -1.1199764013       -0.7578906437
 H          4.1345688355        1.6160935835        0.8466377282
 H          3.0526494140        2.2344184954       -0.4021862817
 H          4.2640135006        1.0175942772       -0.8146630012
 H          3.7590034614       -0.7949267624        1.7666543471
 H          4.0799311175       -1.2983580045        0.0990122334
 H          2.6052542250       -1.8281724749        0.9092665132
 H          1.0961869269       -0.0049983104        1.6887935965
 H          1.1634062699        1.5133810741        1.0617752141
 H          2.4304019720       -0.4890009568       -1.7468349310
 H          1.2741254364        0.8008900826       -1.3508930266
 H          0.2129262290       -0.8545506358       -0.0165881511
