  34
        -42.31305319
 C         -1.9423090058        0.2722907829       -1.1749216693
 C         -2.6610705644        0.0965452232        0.1626761121
 C         -3.5913254889        1.2865478036        0.4245963036
 N         -3.3669866817       -1.1875615353        0.1402327257
 C         -1.6322396819       -0.0241023799        1.3031135967
 O         -0.8744694047       -1.2014515177        1.1805514434
 H         -1.3551569203        1.1860584700       -1.1682570198
 H         -2.6640993667        0.3279674637       -1.9872557697
 H         -1.2794885946       -0.5698837807       -1.3551841966
 H         -4.3291789172        1.3701321158       -0.3714248414
 H         -3.0208121010        2.2104414851        0.4640163096
 H         -4.1154056821        1.1644308061        1.3716992024
 H         -3.9456282808       -1.2606959630       -0.6886007905
 H         -3.9734250981       -1.2698836738        0.9505906488
 H         -2.1585823003       -0.0212191215        2.2704474583
 H         -0.9377600986        0.8177344378        1.2846460159
 H         -1.4954324643       -1.8724779283        0.8550641904
 C          3.0403750004       -0.6634328886        1.2283289684
 C          2.5817393463       -0.1639370807       -0.1470064569
 C          3.7530652347       -0.1498177891       -1.1307399525
 N          1.5084931806       -0.9796959912       -0.7155421889
 C          1.9935314356        1.2553612859       -0.0206101796
 O          1.3470545274        1.6421653956       -1.2040730188
 H          3.7628957449        0.0220510895        1.6645090757
 H          3.5036353655       -1.6444189585        1.1374201639
 H          2.1868923348       -0.7450630412        1.8991256324
 H          4.1126656443       -1.1610768656       -1.3102351464
 H          4.5710992404        0.4457017253       -0.7343331198
 H          3.4324183155        0.2797576196       -2.0763218022
 H          0.7568039686       -1.0747427094       -0.0339646782
 H          1.8498254536       -1.9109178036       -0.9258802954
 H          2.7798305364        1.9865653070        0.1821368797
 H          1.2815068485        1.2705699233        0.8198915407
 H          0.9898993648        0.8165702433       -1.5712587422
