%nprocshared=4
%mem=8000mb
%chk=dimer.chk
%nprocshared=4
%mem=8000mb
#T wB97XD/def2svpp opt=tight freq int(grid=ultrafine) scf=(verytight,qc) Volume=tight

Dimer

0 1
 C         -3.8095100736        0.1855257534        0.8314512802
 C         -2.4412899950        0.1086064628        0.1387111441
 C         -2.5005623642        0.7793236434       -1.2325584711
 N         -1.3969831250        0.7724355566        0.9236267977
 C         -2.0330679017       -1.3721981942       -0.0177754561
 O         -0.8246051986       -1.5539681256       -0.6871976658
 H         -4.5674490109       -0.3215076255        0.2406405041
 H         -4.1096292752        1.2248053690        0.9567903449
 H         -3.7700978237       -0.2847306911        1.8135873448
 H         -2.7100852692        1.8413994271       -1.1285466033
 H         -3.2798039930        0.3247100432       -1.8376995128
 H         -1.5475439225        0.6604618114       -1.7393914555
 H         -1.3075689361        0.3289513648        1.8324038594
 H         -1.6438095003        1.7456399022        1.0720019306
 H         -2.7937720214       -1.8910983960       -0.6071901938
 H         -2.0012256820       -1.8373553290        0.9824990887
 H         -0.1101330883       -1.1239509894       -0.1726268671
 C          3.8093425738       -0.1854937367        0.8318697759
 C          2.4413583265       -0.1085376224        0.1386914562
 C          2.5009936510       -0.7792944790       -1.2325378972
 N          1.3968344310       -0.7724626826        0.9232786942
 C          2.0331007376        1.3722083102       -0.0179467644
 O          0.8244559234        1.5538403094       -0.6872070591
 H          4.1090943654       -1.2247833248        0.9580197578
 H          3.7698249193        0.2854626563        1.8136576254
 H          4.5676170387        0.3208677405        0.2409337220
 H          3.2802217503       -0.3245091315       -1.8375646643
 H          1.5480200691       -0.6606051214       -1.7394961221
 H          2.7107260439       -1.8413298748       -1.1285193436
 H          1.3064775763       -0.3284103378        1.8316705828
 H          1.6440394975       -1.7454460062        1.0723992278
 H          2.7936152762        1.8910896122       -0.6075843143
 H          2.0013325343        1.8375609770        0.9822050148
 H          0.1102363212        1.1235138460       -0.1726119571


