  28
        -41.60379351
 C         -3.9020063233       -0.2178343916       -1.7724025294
 C         -4.1571316741       -0.3831327048       -0.2793868989
 C         -3.3658124704        0.6347199783        0.5418076578
 C         -1.8819184525        0.3584309109        0.5097996344
 O         -1.1548663381        1.4462194586        0.4964288584
 O         -1.4133486093       -0.7653936032        0.5173077067
 H         -4.1803342642        0.7814018859       -2.1011873394
 H         -4.4833175915       -0.9409429808       -2.3390912995
 H         -2.8495079191       -0.3740725602       -1.9971448709
 H         -3.8643125001       -1.3870646315        0.0321216516
 H         -5.2212163473       -0.2566186375       -0.0726846185
 H         -3.6706975579        0.5807805154        1.5905535188
 H         -3.5370077344        1.6521190821        0.1890313038
 H         -0.1669080347        1.2526719450        0.5044156868
 C          3.8978398266        0.2141273590       -1.7735648966
 C          4.1573074978        0.3818310459       -0.2815644848
 C          3.3668268828       -0.6334363354        0.5437018134
 C          1.8829278425       -0.3572125216        0.5115513403
 O          1.1558936384       -1.4449706605        0.4963062062
 O          1.4143644553        0.7666150232        0.5201870701
 H          2.8450576739        0.3720477265       -1.9957966951
 H          4.1732379418       -0.7863102444       -2.1011324576
 H          4.4790633250        0.9349522138       -2.3432440920
 H          3.8667880172        1.3867577872        0.0288745737
 H          5.2217584380        0.2541396095       -0.0774888847
 H          3.6726425225       -0.5758211294        1.5919652635
 H          3.5378302897       -1.6519283581        0.1940233939
 H          0.1679297616       -1.2514529551        0.5033348046
