  28
        -41.60385119
 C         -5.5015199384       -0.1956762704       -0.5667846436
 C         -4.0200360989       -0.5270008969       -0.4505221502
 C         -3.2087776705        0.6902637203       -0.0183229710
 C         -1.7392965289        0.3862531864        0.1308668476
 O         -1.0187824468        1.4529310722        0.3724644543
 O         -1.2740141537       -0.7348158361        0.0402412558
 H         -5.6616286525        0.5927597149       -1.2990314262
 H         -5.8957266194        0.1402705981        0.3898341876
 H         -6.0626271094       -1.0724910169       -0.8795007354
 H         -3.6437088341       -0.8843462649       -1.4105838516
 H         -3.8735619235       -1.3282412478        0.2754655343
 H         -3.5632389341        1.0652014663        0.9454525337
 H         -3.3112823374        1.5065285921       -0.7366572008
 H         -0.0397902252        1.2413734892        0.4770926741
 C          4.2039475825        0.3139768899       -1.5329013893
 C          4.3332149295        0.3801314995       -0.0161728312
 C          3.4669684191       -0.6786655737        0.6674944335
 C          1.9949026689       -0.3845431566        0.5067465981
 O          1.2772624176       -1.4502977370        0.2612317257
 O          1.5265392064        0.7345358848        0.6133689265
 H          3.1759855780        0.5003921883       -1.8352753669
 H          4.4984931021       -0.6668029817       -1.9007702229
 H          4.8388454699        1.0621414827       -2.0010137176
 H          4.0222754883        1.3654380708        0.3348513092
 H          5.3749451861        0.2268528738        0.2707352268
 H          3.6730332904       -0.6853909688        1.7410856025
 H          3.6682565014       -1.6740489976        0.2710091196
 H          0.2960713521       -1.2451362007        0.1713746092
