  28
        -41.60358160
 C         -5.6353681643       -0.2767621023        0.4497392561
 C         -4.1525916789       -0.5899640632        0.3033231583
 C         -3.3432488597        0.6694657895        0.0115789024
 C         -1.8672103527        0.3933843070       -0.1266283289
 O         -1.1639661280        1.4752915895       -0.3501284410
 O         -1.3824062625       -0.7196435086       -0.0379105108
 H         -6.0262724392        0.1645651099       -0.4645030519
 H         -5.8004997492        0.4234866401        1.2657761762
 H         -6.1957486394       -1.1843340192        0.6587555653
 H         -4.0018970906       -1.3063045615       -0.5058928493
 H         -3.7781321555       -1.0499930181        1.2192901964
 H         -3.4684181432        1.4057460676        0.8091345526
 H         -3.6795653679        1.1414164851       -0.9147886636
 H         -0.1786948562        1.2850584891       -0.4344658315
 C          5.5943871144        0.1200173489        0.6013475179
 C          4.0835709409        0.2968387152        0.6614549992
 C          3.3797338135       -0.5360316580       -0.4152202662
 C          1.8921900354       -0.2917954781       -0.3764319021
 O          1.1889370337       -1.3732614060       -0.1649797911
 O          1.4034890245        0.8152848212       -0.5170233990
 H          5.9800316334        0.4418422311       -0.3632957096
 H          5.8632763350       -0.9236727968        0.7482205693
 H          6.0743929468        0.7105915644        1.3776581071
 H          3.8246575683        1.3470784726        0.5163606682
 H          3.7185675917       -0.0065529293        1.6450595037
 H          3.5679205155       -1.5996334633       -0.2706271615
 H          3.7484934596       -0.2353230195       -1.3983066454
 H          0.1992429638       -1.1915050581       -0.1202720333
