  28
        -41.60359607
 C         -5.6178970423       -0.1049436497       -0.5342004541
 C         -4.1088024193       -0.2697952220       -0.6488317118
 C         -3.3761819904        0.5256096048        0.4370652393
 C         -1.8907455198        0.2793712830        0.3555715187
 O         -1.1911475501        1.3616722419        0.1355554039
 O         -1.4004735854       -0.8295776462        0.4735486669
 H         -5.8964882321        0.9422167047       -0.6284980713
 H         -5.9711171570       -0.4692812311        0.4277104082
 H         -6.1193907332       -0.6655699381       -1.3190453199
 H         -3.7763977975        0.0735843563       -1.6308034110
 H         -3.8406096327       -1.3233196467       -0.5522369480
 H         -3.7221941262        0.1928727219        1.4180640681
 H         -3.5649797265        1.5936296819        0.3314444139
 H         -0.2029094154        1.1796650487        0.0703722724
 C          5.6502890237        0.2941317283       -0.3755691722
 C          4.1606612517        0.5963078554       -0.2869095372
 C          3.3523030986       -0.6652580183       -0.0016771701
 C          1.8718115263       -0.3974981937        0.1005253930
 O          1.1717454790       -1.4807972714        0.3282774691
 O          1.3809658620        0.7101759366       -0.0163213920
 H          6.0124523459       -0.1270125033        0.5598074328
 H          6.2099413318        1.2029104467       -0.5813082689
 H          5.8501007144       -0.4191762230       -1.1722718378
 H          3.8147857734        1.0374575123       -1.2231280699
 H          3.9756576734        1.3247470250        0.5041733636
 H          3.6697400255       -1.1255757152        0.9371644721
 H          3.5007709858       -1.4088060742       -0.7883746121
 H          0.1844820100       -1.2956297182        0.3950155189
