  28
        -41.60386246
 C         -4.2815364942       -0.4085033910       -1.4512513841
 C         -4.3480088034       -0.3726437255        0.0705223859
 C         -3.4533116857        0.7252419268        0.6458325808
 C         -1.9873646454        0.4127335741        0.4649624788
 O         -1.2622534464        1.4705021671        0.2056483936
 O         -1.5282645256       -0.7100162653        0.5715788150
 H         -4.9330145126       -1.1865197884       -1.8414069785
 H         -3.2663352400       -0.6150888832       -1.7820173391
 H         -4.5938968985        0.5452387458       -1.8717603041
 H         -4.0242330595       -1.3338206109        0.4729744661
 H         -5.3768589829       -0.1964869197        0.3890054702
 H         -3.6235997158        0.8144578613        1.7222421274
 H         -3.6614592978        1.6916634858        0.1859829573
 H         -0.2834642107        1.2561664692        0.1115429474
 C          5.5262570343        0.1782554382       -0.4879477643
 C          4.0529860043        0.5322737634       -0.3386295675
 C          3.2072990205       -0.7069948316       -0.0641537984
 C          1.7406626216       -0.3896476407        0.0849903885
 O          1.0114946968       -1.4496036108        0.3310573942
 O          1.2838429498        0.7341112678       -0.0141866140
 H          5.6724464238       -0.5141842306       -1.3141514947
 H          5.9025154612       -0.2879003981        0.4201255625
 H          6.1131742922        1.0721792058       -0.6824328440
 H          3.6928326004        1.0153888431       -1.2483529667
 H          3.9225207990        1.2416182115        0.4802462982
 H          3.5327648237       -1.2049291622        0.8523595163
 H          3.3073727640       -1.4327182873       -0.8749571885
 H          0.0339233720       -1.2303082928        0.4315544525
