  28
        -41.60382369
 C         -5.6851837291       -0.2247503715       -0.2232916558
 C         -4.1960432240       -0.5370152338       -0.2777332774
 C         -3.3567477535        0.6783470311        0.1056295744
 C         -1.8783775755        0.3805197601        0.1190878076
 O         -1.1386343260        1.4611010063        0.1216570713
 O         -1.4227672064       -0.7481191238        0.1363779880
 H         -5.9315066435        0.5873054802       -0.9040416457
 H         -5.9790319639        0.0697951043        0.7817880685
 H         -6.2661063632       -1.0982420222       -0.5078107409
 H         -3.9226658070       -0.8569707104       -1.2848472491
 H         -3.9615903298       -1.3582103312        0.4011570035
 H         -3.6242069763        1.0190777972        1.1099821418
 H         -3.5303256829        1.5130637892       -0.5757697816
 H         -0.1536283882        1.2547789539        0.1377805696
 C          5.6853251087        0.2193160847       -0.2310759895
 C          4.1971209698        0.5384853819       -0.2695351020
 C          3.3563069148       -0.6780402691        0.1065064370
 C          1.8781265953       -0.3793165906        0.1207364298
 O          1.1381302286       -1.4597305060        0.1232776723
 O          1.4227942861        0.7494336283        0.1378275758
 H          5.9227251948       -0.5845222392       -0.9246244926
 H          5.9859255907       -0.0900357961        0.7675301733
 H          6.2677573650        1.0940686867       -0.5085340433
 H          3.9166366956        0.8711398020       -1.2705427038
 H          3.9717416401        1.3527720071        0.4206460974
 H          3.6232348385       -1.0255943524        1.1086155265
 H          3.5291765280       -1.5086037339       -0.5802033816
 H          0.1531526425       -1.2531977544        0.1384511125
