  28
        -41.60362047
 C         -5.5897728987       -0.4576762656       -0.5129354021
 C         -4.0886397565       -0.6795233754       -0.3880557184
 C         -3.3652409792        0.6079332624       -0.0066550020
 C         -1.8754710113        0.4201101272        0.1326621428
 O         -1.2485322718        1.5273154397        0.4428640577
 O         -1.3164323573       -0.6493808141       -0.0264414590
 H         -6.0885812826       -1.3838893304       -0.7863488996
 H         -5.8051827430        0.2861165950       -1.2770603578
 H         -6.0056894238       -0.1099316241        0.4302311967
 H         -3.6876170236       -1.0473553159       -1.3339129789
 H         -3.8869496310       -1.4393851439        0.3686559892
 H         -3.7387685308        0.9955343448        0.9443145585
 H         -3.5323907698        1.3851089834       -0.7562126017
 H         -0.2546157272        1.3957060415        0.5359557624
 C          5.5255413339       -0.2668296263       -0.7791088659
 C          4.0113470321       -0.1116267955       -0.8205214062
 C          3.4033913331       -0.2198238918        0.5847061721
 C          1.9087129678       -0.0547031541        0.4922249330
 O          1.2810247854       -1.1633693497        0.1970325617
 O          1.3511313442        1.0169665604        0.6478207960
 H          5.9729420784        0.5075388779       -0.1602889843
 H          5.9398857624       -0.1880815759       -1.7811201484
 H          5.7994380900       -1.2360616510       -0.3688228407
 H          3.5787187428       -0.8873135502       -1.4553671572
 H          3.7527205251        0.8598069957       -1.2470294346
 H          3.8089633772        0.5643912106        1.2242168268
 H          3.6284733178       -1.1996284072        1.0059999729
 H          0.2878084155       -1.0325795637        0.0996045923
