  28
        -41.60361714
 C         -4.0909841373       -0.2340210130       -1.5779827897
 C         -4.1821305851        0.7636733813       -0.4301210240
 C         -3.5096500277        0.2290096492        0.8383463578
 C         -2.0233992006        0.0547040916        0.6430689379
 O         -1.4086339675        1.1539932659        0.2909139057
 O         -1.4570016883       -1.0108386609        0.8097554766
 H         -4.5630772217       -1.1753647136       -1.3051024609
 H         -3.0522510660       -0.4350045600       -1.8306380230
 H         -4.5887783806        0.1577215328       -2.4617426965
 H         -5.2306675086        0.9715082344       -0.2087879992
 H         -3.7024013820        1.7009059908       -0.7160462886
 H         -3.9351081482       -0.7332723370        1.1249824708
 H         -3.6533855893        0.9411473866        1.6535460672
 H         -0.4208206285        1.0178405217        0.1581129284
 C          5.4262207100        0.4254752262       -0.6773294433
 C          3.9280876453        0.6444071783       -0.5167661858
 C          3.2280709133       -0.6231572867       -0.0375854601
 C          1.7438830661       -0.4333381616        0.1499048382
 O          1.1315544712       -1.5299825466        0.5204160994
 O          1.1766050604        0.6296146082       -0.0237450994
 H          5.8752864272        0.1366456900        0.2704961784
 H          5.9079697891        1.3373153968       -1.0206652231
 H          5.6233147306       -0.3605076937       -1.4031729063
 H          3.4939166255        0.9537605631       -1.4689313481
 H          3.7443260463        1.4458270909        0.2006039283
 H          3.6399659803       -0.9545009599        0.9189325133
 H          3.3716839694       -1.4408380994       -0.7477376205
 H          0.1414618253       -1.3954809552        0.6478209130
