%nprocshared=4
%mem=8000mb
%chk=32.chk
%nprocshared=4
%mem=8000mb
#T wB97XD/def2svpp opt=tight freq int(grid=ultrafine) scf=(verytight,qc) Volume=tight

Dimer

0 1
 C         -5.6990929630       -0.2219975475       -0.0149777623
 C         -4.2156030496       -0.5642932374        0.0018165324
 C         -3.3535059032        0.6939112561       -0.0041105124
 C         -1.8768758091        0.3881094478        0.0045446544
 O         -1.1325607750        1.4660433480        0.0046549119
 O         -1.4257994938       -0.7422848597        0.0098844875
 H         -5.9505843628        0.3498872627       -0.9055741719
 H         -5.9661626937        0.3692385730        0.8582717646
 H         -6.2976380747       -1.1292656714       -0.0103516936
 H         -3.9647258756       -1.1724239778       -0.8687814137
 H         -3.9803273701       -1.1537635901        0.8894401265
 H         -3.5677318968        1.3164078749        0.8679266627
 H         -3.5593628227        1.3014221153       -0.8887588262
 H         -0.1485956813        1.2550360744        0.0073291846
 C          5.6991222278        0.2217553933       -0.0136623667
 C          4.2156866633        0.5641507799        0.0058946143
 C          3.3534492687       -0.6938892340       -0.0088302595
 C          1.8768533550       -0.3880025275        0.0020858029
 O          1.1325259464       -1.4659235270        0.0066478961
 O          1.4258037473        0.7424124216        0.0054492243
 H          5.9662817682       -0.3757027499        0.8553246781
 H          6.2977968349        1.1288829280       -0.0027041051
 H          5.9503480969       -0.3438256378       -0.9083562556
 H          3.9646350820        1.1785171950       -0.8602532205
 H          3.9807544465        1.1473025124        0.8977875580
 H          3.5679644473       -1.3232349972        0.8581615931
 H          3.5588677560       -1.2944555229       -0.8983628138
 H          0.1485630242       -1.2549025710        0.0106797418


