%chk=53.chk
%nprocshared=4
%mem=8000mb
#T wB97XD/def2svpp opt=tight freq int(grid=ultrafine) scf=(verytight,qc) Volume=tight

Monomer

0 1
O        2.423576    0.152144   -0.369828 
C        1.249854    0.783286   -0.868739 
C        0.006317    0.030653   -0.390147 
C       -1.241252    0.776619   -0.900701 
O       -1.389592    2.037999   -0.310196 
C        0.009284   -1.426389   -0.917197 
O       -1.160828   -2.128187   -0.615750 
C       -0.083298   -0.045589    1.144631 
O        1.052459   -0.205020    1.808312 
O       -1.146392   -0.031913    1.716798 
H        3.199546    0.697653   -0.554526 
H        1.264470    0.780376   -1.974743 
H        1.183674    1.831500   -0.524822 
H       -2.123772    0.136080   -0.739995 
H       -1.140063    0.937507   -1.988163 
H       -1.727705    1.895860    0.586976 
H        0.912828   -1.947593   -0.543396 
H        0.079576   -1.397974   -2.018466 
H       -1.342901   -2.074691    0.334831 
H        1.815133   -0.170383    1.180544 




