  36
        -48.95172899
 C         -3.8152134866       -2.3329435830       -0.2083340060
 C         -2.7647829531       -1.8454562770        0.7891676905
 C         -3.0887552774       -2.3643915930        2.1941467253
 C         -1.3795501909       -2.3772293808        0.3643233214
 O         -0.3448835780       -2.0737985901        1.2584026956
 C         -2.7720464510       -0.3196653572        0.8633391767
 Br        -2.3019593978        0.5437494675       -0.8259641143
 H         -4.8054287390       -1.9876538701        0.0835401399
 H         -3.8283070890       -3.4195594918       -0.2436634838
 H         -3.6019823832       -1.9644394306       -1.2099691261
 H         -4.0191532706       -1.9375076842        2.5626692436
 H         -2.2857092442       -2.1108786586        2.8824637337
 H         -3.1886892904       -3.4465425321        2.1726934612
 H         -1.1448146992       -2.0104817957       -0.6461957313
 H         -1.4214190757       -3.4691247632        0.3219455983
 H         -0.2135807819       -1.1071564585        1.2895568078
 H         -2.0538356084        0.0534621938        1.5926690309
 H         -3.7666744706        0.0495074146        1.1115213834
 C          4.0723728832        0.8918088071        1.3796491565
 C          2.7573390280        0.1360583318        1.1843423052
 C          2.7836166280       -1.1654714781        1.9942470650
 C          1.5979866701        1.0423283579        1.6604725110
 O          0.3246563380        0.6530561114        1.1994658741
 C          2.5811063229       -0.2547133815       -0.2816629587
 Br         2.3100073446        1.2868264488       -1.4646122052
 H          4.9179095880        0.2502637956        1.1406001373
 H          4.1696637154        1.2160553928        2.4130404874
 H          4.1151034969        1.7716985312        0.7406387155
 H          1.8403071394       -1.6989787380        1.9135446672
 H          2.9677647942       -0.9439449149        3.0425573678
 H          3.5793176999       -1.8167876944        1.6386354489
 H          1.7991167440        2.0770771862        1.3605011303
 H          1.5458622319        1.0078400079        2.7514066381
 H          0.2286651553        0.9404714508        0.2797311182
 H          1.7130503035       -0.8986709654       -0.4182766887
 H          3.4686981270       -0.7637150798       -0.6540426659
