  36
        -48.95197733
 C         -1.3905840050        0.6047134356       -0.5920169354
 C         -1.8882528555       -0.7741496845       -0.1532669663
 C         -2.7135428724       -1.4062408879       -1.2735973182
 C         -0.6871320996       -1.6971319269        0.1501864464
 O          0.0909363956       -1.2969806791        1.2484599004
 C         -2.7034908709       -0.6794840676        1.1331692039
 Br        -4.2564329775        0.4883499073        0.9836596482
 H         -2.2283398457        1.2338031486       -0.8843745044
 H         -0.7265333507        0.5047916529       -1.4483927850
 H         -0.8544198259        1.1094788519        0.2097225107
 H         -2.1109776519       -1.5037079230       -2.1734717231
 H         -3.5766819457       -0.7862318953       -1.5062705081
 H         -3.0655114454       -2.3956870310       -0.9866713390
 H         -0.0718190722       -1.7675148430       -0.7578694508
 H         -1.0437974119       -2.7020274533        0.3958114233
 H          0.3564595718       -0.3690291318        1.1229637235
 H         -2.1010966183       -0.2759583702        1.9465018227
 H         -3.0918946007       -1.6560695157        1.4216171163
 C          4.6130336780        1.4500680597       -0.3570772829
 C          3.5422841265        0.7881314784        0.5111088493
 C          4.0962110072        0.5531692939        1.9232376107
 C          2.3175219951        1.7225268947        0.5725703828
 O          1.2828622818        1.2694743973        1.4156525716
 C          3.1584134718       -0.5799091475       -0.0512516265
 Br         2.4574034759       -0.4957308487       -1.8687996638
 H          5.4748684453        0.7943693573       -0.4638363331
 H          4.9461935244        2.3809614076        0.0957536204
 H          4.2257092799        1.6745504200       -1.3484858381
 H          3.4006416961       -0.0240314524        2.5306215095
 H          4.2918736264        1.5046647643        2.4141133488
 H          5.0315010409        0.0004674485        1.8732160968
 H          1.8662981938        1.8113967798       -0.4188846615
 H          2.6482880229        2.7216386222        0.8838821055
 H          1.5952907781        1.2713569474        2.3271416720
 H          2.3808793634       -1.0535263345        0.5477956812
 H          4.0285724967       -1.2337602019       -0.1009701275
