  36
        -48.95288037
 C         -3.4703716840       -2.4093316979       -0.5024837768
 C         -2.6825753137       -1.2592466849        0.1240550729
 C         -3.5832659555       -0.4781509751        1.0905866003
 C         -1.4764383283       -1.8437151256        0.8848320706
 O         -0.6213143891       -0.8684194889        1.4287547432
 C         -2.2177245361       -0.2708401104       -0.9433884236
 Br        -1.0104563911       -1.0547489132       -2.2607113293
 H         -4.3311770173       -2.0274567084       -1.0476531167
 H         -3.8269069530       -3.0878984977        0.2688864434
 H         -2.8488054958       -2.9762746230       -1.1923318926
 H         -4.4807239852       -0.1389397625        0.5785948879
 H         -3.0743781414        0.3999258706        1.4854728250
 H         -3.8853405819       -1.1147682075        1.9195471627
 H         -0.8544268198       -2.4288491104        0.2021369510
 H         -1.8408442019       -2.5171347932        1.6716660974
 H         -1.0951583134       -0.3604594050        2.0974851160
 H         -1.6721012517        0.5584195531       -0.4952370503
 H         -3.0645313163        0.1150698730       -1.5091943711
 C          3.7182274709        1.9853422918        0.8363016581
 C          2.9928887990        0.6467230791        0.7021014041
 C          3.8521245237       -0.3436393233       -0.0910847144
 C          2.7291850415        0.0650643277        2.1095226858
 O          2.1475201462       -1.2087941352        2.1047926915
 C          1.6920555237        0.8185256185       -0.0739224339
 Br         0.4333159174        2.0320465470        0.7844772543
 H          3.9183315456        2.4097259399       -0.1463002844
 H          4.6670101536        1.8513431271        1.3504347153
 H          3.1248551554        2.6983371751        1.4065728133
 H          3.3826893472       -1.3244848184       -0.0956171762
 H          4.8304745538       -0.4367189515        0.3733768419
 H          3.9846376964       -0.0107235999       -1.1183301585
 H          2.1206723250        0.7734075357        2.6907316150
 H          3.6892037159       -0.0485383991        2.6214161649
 H          1.2208818456       -1.1377623058        1.8238371265
 H          1.1652377624       -0.1281672002       -0.1783352495
 H          1.8777363860        1.2420839126       -1.0605424675
