  36
        -48.95192837
 C         -1.5095203664        0.6929717942       -0.5909126568
 C         -1.9431197475       -0.7176832212       -0.1866888338
 C         -2.7866283388       -1.3384812872       -1.2997342465
 C         -0.6999162732       -1.6064374733        0.0410104951
 O          0.0981969343       -1.2173146222        1.1288655382
 C         -2.7135530762       -0.6992745741        1.1303357493
 Br        -4.3137586661        0.4117759405        1.0790339554
 H         -0.9514412373        1.1833200447        0.2048414194
 H         -2.3788697810        1.3054274341       -0.8196194698
 H         -0.8825613054        0.6481913772       -1.4792980071
 H         -2.2127206967       -1.3881896532       -2.2219954261
 H         -3.6756842657       -0.7386410549       -1.4825929875
 H         -3.0984755171       -2.3472794326       -1.0346898811
 H         -0.1125154809       -1.6198642730       -0.8876211963
 H         -1.0120904915       -2.6320785721        0.2597200378
 H          0.3486344330       -0.2836354502        1.0137171085
 H         -2.0968709136       -0.3017919597        1.9358581485
 H         -3.0540448786       -1.6997586726        1.3965567744
 C          4.6501704445        1.4667938416       -0.3618132771
 C          3.5474444515        0.8403023382        0.4927418589
 C          4.0463072579        0.6728342010        1.9347545651
 C          2.3189670894        1.7715278592        0.4636800959
 O          1.2580781787        1.3613945002        1.2963111466
 C          3.1902390584       -0.5536100167       -0.0219421220
 Br         2.5631521768       -0.5539393545       -1.8684108458
 H          4.9645537659        2.4177063599        0.0619374888
 H          5.5162221840        0.8094554778       -0.4060919372
 H          4.3012807181        1.6459033351       -1.3764233341
 H          4.2173251162        1.6468204339        2.3895360716
 H          4.9858803605        0.1253365356        1.9464007970
 H          3.3305941554        0.1181387005        2.5396926309
 H          1.9000102136        1.8050418003       -0.5451244728
 H          2.6370880742        2.7873505102        0.7312021230
 H          1.5439807349        1.4073263868        2.2153362025
 H          2.3894840434       -1.0039464797        0.5644679836
 H          4.0635887501       -1.2049103166       -0.0070960052
