  36
        -48.95194851
 C         -1.4804771266        0.6665058229       -0.5979300392
 C         -1.9316320314       -0.7345724972       -0.1797321940
 C         -2.7741900316       -1.3598462812       -1.2910020645
 C         -0.6994632591       -1.6335275120        0.0667662882
 O          0.0966973325       -1.2395889130        1.1543097855
 C         -2.7106609973       -0.6921645978        1.1316811934
 Br        -4.2974500883        0.4366440877        1.0563632844
 H         -0.9263142551        1.1621011411        0.1973049877
 H         -2.3416267027        1.2839334886       -0.8436142610
 H         -0.8449049253        0.6041850997       -1.4791282611
 H         -2.1955089183       -1.4241225719       -2.2093482766
 H         -3.6569542578       -0.7543490241       -1.4852671459
 H         -3.0962693775       -2.3630595476       -1.0171346172
 H         -0.1069235030       -1.6647989573       -0.8582361933
 H         -1.0237519787       -2.6530517169        0.2962678086
 H          0.3508768252       -0.3076835904        1.0337449494
 H         -2.0949629929       -0.2924126758        1.9368399897
 H         -3.0645696351       -1.6855034662        1.4070467720
 C          4.6421962254        1.4621906610       -0.3630029906
 C          3.5480094795        0.8279207168        0.4967255384
 C          4.0613797087        0.6462896984        1.9318948661
 C          2.3196628139        1.7596928335        0.4891038866
 O          1.2639386129        1.3370450839        1.3219448864
 C          3.1847269559       -0.5607785265       -0.0275974216
 Br         2.5351154995       -0.5424481135       -1.8660856488
 H          5.5084689175        0.8061517126       -0.4204033491
 H          4.2838120456        1.6489786048       -1.3729200238
 H          4.9595092474        2.4100760851        0.0653112351
 H          3.3506231289        0.0879532695        2.5393231286
 H          4.2393859212        1.6157373937        2.3935818769
 H          4.9996919988        0.0964919752        1.9289286022
 H          1.8945239909        1.8081651874       -0.5165238644
 H          2.6396806813        2.7713934946        0.7696339011
 H          1.5545467841        1.3709870974        2.2400031119
 H          2.3913495183       -1.0170188138        0.5642335549
 H          4.0582224556       -1.2120597386       -0.0298918968
