  36
        -48.95246120
 C         -2.9352241858       -1.6962331429       -1.2047724438
 C         -2.0885738300       -1.4095228006        0.0356800552
 C         -2.8672387078       -1.7713924133        1.3031889455
 C         -0.8081820560       -2.2663959677       -0.0657320695
 O          0.0839058133       -2.1209906727        1.0198302007
 C         -1.6626711321        0.0575307324        0.0694332249
 Br        -3.1746310706        1.2882197081        0.1357214997
 H         -3.8474414658       -1.1048323228       -1.1882860932
 H         -3.2121209372       -2.7473816453       -1.2407035219
 H         -2.3816895449       -1.4542611167       -2.1098539581
 H         -2.3227437913       -1.4779275662        2.2003945889
 H         -3.0601198585       -2.8421793176        1.3395921142
 H         -3.8245802498       -1.2558794294        1.3144059288
 H         -0.2420910239       -1.9776060761       -0.9538338704
 H         -1.0956852367       -3.3202789994       -0.1706904535
 H         -0.3590455719       -2.4224621028        1.8219601364
 H         -1.0999927866        0.3213842136       -0.8258958839
 H         -1.0733960852        0.2784034925        0.9586013649
 C          4.0114348969        1.6453942311        0.2007713103
 C          3.2087665423        0.5450379429        0.8947257088
 C          4.0040059653       -0.0220286870        2.0755667906
 C          1.8832504850        1.1387964781        1.4150812339
 O          1.1128016031        0.2536758315        2.1814339019
 C          2.9526622273       -0.6125873726       -0.0686047811
 Br         1.9108228988       -0.1010037866       -1.6351937538
 H          4.2343673505        2.4480967268        0.8993142157
 H          3.4544386450        2.0691330413       -0.6328696642
 H          4.9524858400        1.2495381285       -0.1774067284
 H          3.4021258843       -0.7413113516        2.6263260285
 H          4.2765420014        0.7818633924        2.7543308407
 H          4.9140259986       -0.5106980532        1.7337199531
 H          1.3019277621        1.5280529802        0.5654772889
 H          2.1084163834        1.9787622566        2.0773309364
 H          0.8791914505       -0.5227505150        1.6448707962
 H          2.3945382517       -1.4202404269        0.4048634274
 H          3.8911382167       -1.0037359666       -0.4607746521
