  36
        -48.95172363
 C         -3.4748233331       -2.2413528505        0.3929770820
 C         -2.1270199615       -1.5266010910        0.4944647540
 C         -2.0803145645       -0.6842760024        1.7709446414
 C         -1.0104643777       -2.5957919391        0.5244287649
 O          0.2914005649       -2.0791041379        0.5029624121
 C         -1.8816876632       -0.6598494297       -0.7378616476
 Br        -3.2018670142        0.7545680096       -0.9574271300
 H         -4.2874600442       -1.5185642857        0.3776360801
 H         -3.6194664393       -2.8996284413        1.2467880523
 H         -3.5282534021       -2.8404596953       -0.5143122744
 H         -2.2047097979       -1.3202143227        2.6453290296
 H         -2.8826576606        0.0499566830        1.7682839342
 H         -1.1355449598       -0.1523290038        1.8636260667
 H         -1.0874282226       -3.2328925059       -0.3617215500
 H         -1.1572002149       -3.2279973168        1.4128843313
 H          0.4094226451       -1.4876914728        1.2671426707
 H         -1.9283104306       -1.2541818709       -1.6498066716
 H         -0.9168040793       -0.1589662359       -0.6850969571
 C          4.0477485026        1.6979927257        0.9333601462
 C          3.2934960494        0.4000678303        1.2268752429
 C          4.2042737768       -0.5561759318        2.0095267525
 C          2.0437543115        0.7426758902        2.0621950664
 O          1.3188127390       -0.3779750656        2.5181863402
 C          2.9088276783       -0.3085417945       -0.0716832469
 Br         1.7950245181        0.7795274654       -1.2376965917
 H          4.9051881783        1.5023571808        0.2925794989
 H          4.4067930268        2.1458297460        1.8571592353
 H          3.4026317092        2.4179764738        0.4347951623
 H          3.7452602355       -1.5372703789        2.1221025970
 H          4.4213785981       -0.1487189532        2.9953726581
 H          5.1474317775       -0.6895651387        1.4847733536
 H          1.3403268040        1.3207082221        1.4577538798
 H          2.3462166721        1.3651545396        2.9143372126
 H          1.8722462187       -0.8788136652        3.1273557836
 H          2.3316459781       -1.2127820642        0.1164093482
 H          3.7970584170       -0.5521469331       -0.6539844171
