  36
        -48.95278348
 C         -1.9111515657       -0.7155361484       -1.3076789348
 C         -2.2629921808       -1.2038520587        0.1001364673
 C         -3.6500663201       -1.8482203745        0.0975509756
 C         -1.2404281737       -2.2688846475        0.5602063263
 O          0.1053715928       -1.8824437212        0.4177042233
 C         -2.2161021718       -0.0549873745        1.1064848016
 Br        -3.3940148020        1.4262636506        0.6315104192
 H         -0.9943603459       -0.1281190805       -1.3105690008
 H         -2.7083232533       -0.0868918642       -1.6964388482
 H         -1.7877946979       -1.5590643958       -1.9844994516
 H         -3.6972959959       -2.6465398897       -0.6393455609
 H         -4.4101101531       -1.1113490659       -0.1515948188
 H         -3.8822207992       -2.2679596968        1.0747137123
 H         -1.4206333193       -3.1943642596       -0.0015878304
 H         -1.3743099850       -2.4827941714        1.6237352823
 H          0.2815012480       -1.7526170361       -0.5253789607
 H         -1.2189522188        0.3741766061        1.1891393165
 H         -2.5437786504       -0.3879253190        2.0910620182
 C          3.8906933017        1.7754380078       -0.2422815307
 C          3.1849339338        0.7459882447        0.6396638818
 C          3.9101733557        0.6154291662        1.9833163331
 C          1.7337843892        1.2069146140        0.8964011948
 O          1.0226740266        0.4012385078        1.7952530218
 C          3.2179260190       -0.6314874943       -0.0176958996
 Br         2.3235968672       -0.6879958538       -1.7529091668
 H          3.9103578814        2.7441937325        0.2505720848
 H          4.9172472547        1.4699699181       -0.4372114083
 H          3.3776994106        1.8930930994       -1.1951076076
 H          3.3543057461       -0.0417334295        2.6479911703
 H          3.9843951426        1.5911024597        2.4561940134
 H          4.9139619781        0.2180722691        1.8486082747
 H          1.2037511077        1.2923951191       -0.0641099678
 H          1.7612072742        2.2013309684        1.3503734467
 H          0.8298926521       -0.4623723133        1.3874275716
 H          2.7196842004       -1.3816708649        0.5960355022
 H          4.2433945841       -0.9439027106       -0.2125222235
