  36
        -48.95196926
 C         -1.4380460858        0.6456378105       -0.5868381727
 C         -1.9092418651       -0.7486605376       -0.1681461519
 C         -2.7372880485       -1.3733277888       -1.2906200635
 C         -0.6901476026       -1.6574704325        0.1053325802
 O          0.0933820040       -1.2632928665        1.2019230191
 C         -2.7110282887       -0.6908420687        1.1288701672
 Br        -4.2864953196        0.4508685866        1.0178078094
 H         -2.2891956954        1.2690009200       -0.8516387102
 H         -0.7876109857        0.5721464692       -1.4562961995
 H         -0.8941200034        1.1413604018        0.2154018487
 H         -3.0720319317       -2.3725059825       -1.0171240894
 H         -2.1431172756       -1.4469502600       -2.1983476659
 H         -3.6116913565       -0.7619943503       -1.5035494282
 H         -0.0840681492       -1.7021015554       -0.8103232305
 H         -1.0281262664       -2.6719461193        0.3375255273
 H          0.3545014906       -0.3333880608        1.0815890605
 H         -2.1063423445       -0.2908605480        1.9422167230
 H         -3.0783277112       -1.6792452307        1.4044382652
 C          4.6321743431        1.4577082546       -0.3626102544
 C          3.5513897176        0.8107457701        0.5044984725
 C          4.0886990006        0.6029124800        1.9272752415
 C          2.3249468533        1.7445477823        0.5339847098
 O          1.2805937210        1.3058777040        1.3728032553
 C          3.1754375242       -0.5677405554       -0.0373762266
 Br         2.4980840656       -0.5165778780       -1.8651754027
 H          5.4963637739        0.8016117339       -0.4452644461
 H          4.9579704655        2.3979257456        0.0760948724
 H          4.2575147996        1.6618902086       -1.3632166534
 H          3.3866545617        0.0363829133        2.5372318550
 H          4.2776652778        1.5637297634        2.4024041083
 H          5.0250600940        0.0505111422        1.8987327943
 H          1.8855840097        1.8145575993       -0.4642620293
 H          2.6508479954        2.7496641124        0.8308462463
 H          1.5831575009        1.3227150558        2.2874576708
 H          2.3898416539       -1.0308450078        0.5594602847
 H          4.0463797077       -1.2219137581       -0.0637906191
