  36
        -48.95273845
 C         -2.0045737564       -0.9469697814       -1.3258337367
 C         -2.2630176431       -1.2669313691        0.1492206028
 C         -3.6484665944       -1.8931736579        0.3131691168
 C         -1.2147683920       -2.2808940989        0.6607676604
 O          0.1204405620       -1.8888747697        0.4520506755
 C         -2.1432197224       -0.0105780162        1.0098386738
 Br        -3.3566829533        1.4137749733        0.4589451101
 H         -1.9323505064       -1.8644856528       -1.9069148108
 H         -1.0870967419       -0.3753668177       -1.4597355043
 H         -2.8234853742       -0.3571434154       -1.7301760863
 H         -3.7415113971       -2.7785800269       -0.3112631717
 H         -4.4212064427       -1.1870826891        0.0181361245
 H         -3.8213121542       -2.1827262860        1.3481139741
 H         -1.3972664328       -3.2491171874        0.1765620792
 H         -1.3164484586       -2.4136394729        1.7409516435
 H          0.2599703494       -1.7906844416       -0.5007417259
 H         -1.1440472328        0.4173877133        0.9614675458
 H         -2.3889812497       -0.2242879956        2.0496581145
 C          3.9025440268        1.7796819063       -0.1347298565
 C          3.2240548963        0.7018193798        0.7100249715
 C          4.0096192190        0.4728666585        2.0056596439
 C          1.7930412899        1.1610882777        1.0659862087
 O          1.1133673673        0.3063395794        1.9433346626
 C          3.2051717663       -0.6290110906       -0.0372951136
 Br         2.2289733551       -0.5580665905       -1.7260586783
 H          4.9131485068        1.4748401638       -0.4013187050
 H          3.9625163383        2.7122146843        0.4208369093
 H          3.3451719047        1.9690585868       -1.0504398774
 H          3.4755575851       -0.2210323572        2.6506492601
 H          4.1201518619        1.4135870735        2.5384813506
 H          5.0001075425        0.0739347547        1.7969366861
 H          1.2212712385        1.3165140472        0.1386755939
 H          1.8570524124        2.1231804520        1.5819218727
 H          0.8750752425       -0.5191991156        1.4856996694
 H          2.7247387949       -1.4114273456        0.5497065066
 H          4.2151996252       -0.9402858493       -0.3021569188
