  34
        -72.17441288
 O         -1.2787834613        0.1665923740        1.1106863748
 C         -1.8699483398        0.0044103283       -0.0274112820
 O         -1.3005091525       -0.1296375212       -1.0950218793
 C         -3.4042606882       -0.0612119635        0.0563476387
 C         -3.9258394815        0.5943400821        1.3339299445
 Cl        -3.4477958109        2.3079897656        1.4045799330
 C         -3.9689018420        0.6220859233       -1.1944611573
 Cl        -5.7285723658        0.4084148192       -1.3173304310
 C         -3.7790882561       -1.5526080590        0.0307699495
 Cl        -3.0137647035       -2.4412335196        1.3699364277
 H         -0.2739494281        0.1683965980        1.0382775659
 H         -3.5108238719        0.1080995458        2.2153942264
 H         -5.0150073236        0.5606590905        1.3548688640
 H         -3.5213302840        0.1987704739       -2.0933325203
 H         -3.7778972701        1.6947084495       -1.1536051788
 H         -3.4340945106       -2.0084233842       -0.8979323499
 H         -4.8567927673       -1.6765110244        0.1304070827
 O          1.3177567935       -0.1893998083       -1.5114926036
 C          1.9110007588       -0.0285225220       -0.3651792880
 O          1.3418723737        0.1257195059        0.6938094168
 C          3.4439999243       -0.0537674722       -0.4839759987
 C          3.8638780916        1.0719892864       -1.4350442437
 Cl         3.1528785085        2.6180858876       -0.8994905667
 C          4.0425910222        0.1406778825        0.9095650256
 Cl         5.8178409232        0.1237992990        0.8514471939
 C          3.8498246545       -1.4044447697       -1.0833413321
 Cl         3.1210408712       -2.7321537465       -0.1405796862
 H          0.3132943340       -0.1737104688       -1.4289242912
 H          3.4947472072        0.8849731432       -2.4425264564
 H          4.9467565276        1.1911379389       -1.4379669163
 H          3.7264493067       -0.6634374570        1.5733682997
 H          3.7349594061        1.1004044789        1.3236021121
 H          4.9312316587       -1.5322416741       -1.0504693878
 H          3.4819652896       -1.5009102315       -2.1039617933
