  34
        -72.17070145
 O         -1.1855702862        0.9101619236        1.1054501333
 C         -1.7659255731        0.0978927217        0.2726375793
 O         -1.1900649664       -0.5843169555       -0.5472917134
 C         -3.2958900267        0.0834809001        0.4317430999
 C         -3.8094526217        1.5098030887        0.2089200545
 Cl        -3.2074061563        2.1372775271       -1.3481293836
 C         -3.8823243605       -0.8875905271       -0.5932926189
 Cl        -5.6527466968       -0.9580010795       -0.4689696513
 C         -3.6175290261       -0.3543515575        1.8646331924
 Cl        -2.7884652928       -1.8902406941        2.2332444279
 H         -0.1830933973        0.9192581811        0.9975145168
 H         -3.4403226005        2.1791479396        0.9848895607
 H         -4.8981650957        1.5270592467        0.1717634303
 H         -3.4993763896       -1.8935401454       -0.4242892888
 H         -3.6351375020       -0.5659996117       -1.6045590654
 H         -4.6873164930       -0.5203752508        1.9869379447
 H         -3.2578902086        0.3808870280        2.5832924115
 O          1.4336023959       -0.7580811976       -0.9493471746
 C          2.0081026375        0.0727320000       -0.1333350658
 O          1.4204967520        0.7765552774        0.6612993170
 C          3.5416842890        0.0805565953       -0.2544244439
 C          4.1421904754        0.9836489074        0.8300981403
 Cl         3.8125326599        2.7034367766        0.5256737722
 C          4.0428763620       -1.3554756487       -0.0607214600
 Cl         3.5388925426       -1.9830844462        1.5288182422
 C          3.9651900773        0.6048474053       -1.6374421880
 Cl         3.5448936336       -0.4981813135       -2.9660929021
 H          0.4316827565       -0.7542155369       -0.8651921299
 H          5.2249872594        0.8674676188        0.8660305600
 H          3.7064353110        0.7468515630        1.8003996873
 H          5.1311111581       -1.3985462632       -0.1014781803
 H          3.6103866478       -2.0107090379       -0.8161201784
 H          5.0475345492        0.7351526439       -1.6622161406
 H          3.4796702442        1.5581446072       -1.8455729219
