  34
        -72.17479239
 O         -1.5035291222       -0.0055906926       -1.0784190836
 C         -1.8878938720       -0.0051435333        0.1588742584
 O         -1.1444789977       -0.0088782170        1.1198404081
 C         -3.4134503434        0.0004221948        0.3591072354
 C         -3.7531261156        1.2484193038        1.1825711872
 Cl        -3.1383233836        2.7052205318        0.3598663881
 C         -4.1323931710        0.0072102087       -0.9880794803
 Cl        -5.8982807373        0.0128908085       -0.7646140544
 C         -3.7630957845       -1.2496008014        1.1753440074
 Cl        -3.1599008292       -2.7067053160        0.3444808655
 H         -0.4979995448       -0.0089338466       -1.1721806053
 H         -3.2684616278        1.2066871730        2.1575794035
 H         -4.8308880935        1.3607261964        1.2917857962
 H         -3.8805353569       -0.8839402622       -1.5614497944
 H         -3.8741677208        0.9002276899       -1.5557068756
 H         -4.8417673501       -1.3539428833        1.2839374735
 H         -3.2781897213       -1.2171800758        2.1505923738
 O          1.5040584170       -0.0063640334        1.0791014443
 C          1.8882319902       -0.0070504338       -0.1582453140
 O          1.1446702635       -0.0113158178       -1.1191094236
 C          3.4137247500       -0.0017070927       -0.3589643253
 C          3.7527958053        1.2469882315       -1.1816734641
 Cl         3.1363134870        2.7030868480       -0.3585537120
 C          4.1333098841        0.0044211158        0.9878394777
 Cl         5.8991563092        0.0115081866        0.7634065883
 C          3.7629525315       -1.2513579693       -1.1759582615
 Cl         3.1602974010       -2.7088618354       -0.3455292374
 H          0.4985626392       -0.0087748454        1.1729878245
 H          3.2685843503        1.2052688677       -2.1568905281
 H          4.8305341927        1.3603263195       -1.2903988444
 H          3.8824533640       -0.8874890225        1.5604750880
 H          3.8747606504        0.8967023111        1.5564666925
 H          4.8415462798       -1.3555753111       -1.2852502496
 H          3.2774999828       -1.2184770624       -2.1509234199
