  34
        -72.17388186
 O         -1.4733716250       -0.3493329654       -1.2803979979
 C         -1.8915859814       -0.0405630386       -0.0846926967
 O         -1.1670084812        0.2117834910        0.8513762294
 C         -3.4240628245       -0.0699346779        0.0393947265
 C         -3.8523387201        0.5918574907        1.3497328079
 Cl        -3.3829564221        2.3073580862        1.3761563113
 C         -4.0344958805        0.6375225434       -1.1747035280
 Cl        -5.8092217089        0.5015295801       -1.1758004077
 C         -3.8409659484       -1.5491453736        0.0304526126
 Cl        -2.9960968723       -2.4624957768        1.3053315232
 H         -0.4661331395       -0.3576622704       -1.3400116768
 H         -3.3590463676        0.1138603662        2.1953493511
 H         -4.9350072254        0.5492940553        1.4615723682
 H         -3.6749346154        0.1924503163       -2.1014429155
 H         -3.7967543924        1.7012161846       -1.1504001461
 H         -3.5767112234       -2.0075794692       -0.9227279081
 H         -4.9106581467       -1.6479271759        0.2109734539
 O          1.4837639685        0.2339792633        0.8959560118
 C          1.8954151988       -0.0586719036       -0.2965388738
 O          1.1744700652       -0.3062832653       -1.2431226615
 C          3.4250651584       -0.0753662410       -0.4627236517
 C          3.7683632049        0.9517013740       -1.5483372013
 Cl         3.1127078678        2.5488876525       -1.1042340494
 C          4.1125995242        0.2581990418        0.8593930108
 Cl         5.8829987127        0.2450756419        0.6743882285
 C          3.8093418819       -1.4748374348       -0.9573194690
 Cl         3.1999595244       -2.7087089206        0.1758818830
 H          0.4777074825        0.2446237526        0.9691078677
 H          3.3096728252        0.6734713505       -2.4967124594
 H          4.8469490224        1.0560956147       -1.6573270580
 H          3.8600794918       -0.4797557716        1.6197002021
 H          3.8289300655        1.2534879103        1.1989494798
 H          4.8915554736       -1.5834765962       -1.0136042979
 H          3.3502115406       -1.6781796399       -1.9243122152
