  34
        -72.17084124
 O         -1.5432755353       -0.7744479134        0.8305765080
 C         -2.0353232716        0.2404310163        0.1979003241
 O         -1.3751423685        1.1178942194       -0.3280538661
 C         -3.5713938834        0.3025997582        0.1914957760
 C         -3.9762107980        1.2764796634        1.3109345413
 Cl        -3.3473839441        0.7529792020        2.8911254391
 C         -4.0083512681        0.8791245448       -1.1604852574
 Cl        -5.7539736232        1.2083414652       -1.1956044584
 C         -4.1889904349       -1.0733257756        0.4365355582
 Cl        -3.6723000789       -2.2279637310       -0.8169600138
 H         -0.5373208667       -0.7774756559        0.8493828380
 H         -5.0610752690        1.3317840717        1.3932858412
 H         -3.5649894489        2.2666287584        1.1115112869
 H         -3.7996958105        0.1645816051       -1.9570750624
 H         -3.4908624069        1.8174509949       -1.3585146253
 H         -5.2760197837       -1.0095697056        0.3905649406
 H         -3.8692819397       -1.4759553258        1.3964385523
 O          1.2614062942        1.2226875247       -0.5387036786
 C          1.7597384950        0.2115992423        0.1035560868
 O          1.1069371505       -0.5836624969        0.7494529890
 C          3.2914852924        0.0738172364        0.0023630313
 C          3.5455742165       -1.2621270971       -0.7078747177
 Cl         2.5852651828       -1.3449087988       -2.2065291001
 C          3.8566711091        1.2465250089       -0.7992911549
 Cl         5.6254073036        1.1470694471       -0.9851045632
 C          3.8155420220        0.0163679636        1.4460718245
 Cl         5.4203708682       -0.7399658201        1.5859440869
 H          0.2521138613        1.2517538645       -0.4904048534
 H          3.2320707847       -2.0939091265       -0.0776951966
 H          4.5948734277       -1.3618934831       -0.9808679646
 H          3.6365967832        2.1925317140       -0.3057237293
 H          3.4304855553        1.2508723529       -1.8022409966
 H          3.1382477696       -0.5854351408        2.0537287330
 H          3.8975459840        1.0205254398        1.8624022886
