  34
        -72.17419136
 O         -1.3760025186        1.1136337923        0.4977682609
 C         -1.8764592506        0.0028773880        0.0645400164
 O         -1.2258313502       -0.9333502434       -0.3619271618
 C         -3.4078260332       -0.0887221335        0.1705855563
 C         -4.0497101600        1.2963903649        0.2307105116
 Cl        -3.6502241857        2.2395833090       -1.2255207605
 C         -3.9118631072       -0.8874532296       -1.0370312838
 Cl        -5.6467676677       -1.2467638326       -0.9042794372
 C         -3.7110724432       -0.8736254788        1.4581090923
 Cl        -3.0115987723       -0.0792752471        2.8887030568
 H         -0.3692079970        1.1356865420        0.4540224819
 H         -3.6806662637        1.8567919092        1.0883380225
 H         -5.1351189507        1.2054360127        0.2705794092
 H         -3.3824183185       -1.8369282836       -1.1122608464
 H         -3.7722615081       -0.3110430485       -1.9518802530
 H         -3.2761608376       -1.8719249285        1.3979385402
 H         -4.7866440062       -0.9433191512        1.6167577841
 O          1.4157367010       -1.0913136763       -0.5315556876
 C          1.9148983765        0.0212164232       -0.0915508574
 O          1.2647066105        0.9634290565        0.3140844930
 C          3.4517448674        0.0891604463       -0.1094364316
 C          3.9046518796        0.3386833387        1.3340816995
 Cl         3.2578806424       -0.9332301902        2.4022001390
 C          4.0410488500       -1.2059134867       -0.6636587294
 Cl         5.8197178810       -1.1345633945       -0.6872391792
 C          3.8381743442        1.2962642853       -0.9722447042
 Cl         3.1202550899        1.1376276084       -2.5958664039
 H          0.4068908338       -1.1009294178       -0.5013870637
 H          3.5134155348        1.2879527094        1.6989490705
 H          4.9907825589        0.3136726052        1.4108314892
 H          3.7092580153       -1.3706549833       -1.6878870780
 H          3.7586171697       -2.0531857094       -0.0402569081
 H          4.9187965804        1.3576805861       -1.0934800035
 H          3.4451061576        2.2161969443       -0.5403364691
