  34
        -72.17504818
 O         -1.3360580052        0.0050886947        1.0763141441
 C         -1.8862557928       -0.0048899801       -0.0963813885
 O         -1.2824270581       -0.0175242482       -1.1507060303
 C         -3.4249958579        0.0006477842       -0.0851094642
 C         -3.8840934991       -1.2536393604       -0.8380939733
 Cl        -3.1720503188       -2.7069171406       -0.0904479651
 C         -3.9518493275        0.0160583991        1.3480279486
 Cl        -5.7317299917        0.0225066746        1.3692586875
 C         -3.8747443147        1.2442370293       -0.8611604923
 Cl        -3.1494410112        2.7054071757       -0.1420006389
 H         -0.3276571479        0.0023213738        1.0334414075
 H         -3.5385862897       -1.2270642014       -1.8711305157
 H         -4.9674238347       -1.3575393086       -0.7961484879
 H         -3.6176515304        0.9118635424        1.8697748705
 H         -3.6239302943       -0.8720241663        1.8866791187
 H         -4.9571032963        1.3580281064       -0.8197497618
 H         -3.5310008843        1.1953500739       -1.8939590531
 O          1.3452948692       -0.0193682780       -1.4815216317
 C          1.8987204541       -0.0081702181       -0.3052540442
 O          1.2945311842       -0.0005812801        0.7459859705
 C          3.4350877186       -0.0046663729       -0.3748586726
 C          3.8704170112        1.2407370068       -1.1544553277
 Cl         3.1239262225        2.6962116495       -0.4421762477
 C          3.9865383401        0.0090175641        1.0512239716
 Cl         5.7626537980        0.0137160980        1.0505062438
 C          3.8773688506       -1.2606694194       -1.1332174746
 Cl         3.1392364549       -2.7080526676       -0.3962658398
 H          0.3380454483       -0.0202608865       -1.4327059428
 H          3.5349205007        1.1859577342       -2.1892231348
 H          4.9513464957        1.3680485016       -1.1067356403
 H          3.6589225437       -0.8780281825        1.5925120706
 H          3.6542828777        0.9035234872        1.5771709200
 H          4.9590140163       -1.3809936875       -1.0835171470
 H          3.5415409675       -1.2253424016       -2.1687249510
