  34
        -72.17066988
 O         -1.6169323462        0.0359442901       -1.2456432024
 C         -2.0566624533        0.1666122391       -0.0250479170
 O         -1.3572979283        0.4083815130        0.9331367047
 C         -3.5715162700       -0.0651484278        0.0942223955
 C         -4.0630186620        0.4031821676        1.4642994046
 Cl        -3.8072251669        2.1517441249        1.6644143038
 C         -4.2824331181        0.6756081487       -1.0428018316
 Cl        -6.0243928174        0.3097157843       -1.0595088403
 C         -3.7965141818       -1.5778465931       -0.0616040701
 Cl        -2.8129210592       -2.4965249612        1.1063278145
 H         -0.6174284274        0.1455578133       -1.3026583683
 H         -3.5054487415       -0.0931822288        2.2577796092
 H         -5.1310158907        0.2167889572        1.5696545620
 H         -3.8790826643        0.3768340421       -2.0093652115
 H         -4.1848128920        1.7533445620       -0.9102311790
 H         -3.4971829053       -1.9008460130       -1.0588719750
 H         -4.8405155549       -1.8315528412        0.1177003490
 O          1.2850305076        0.4747884256        1.0356103141
 C          1.7248261925        0.3666613950       -0.1786759982
 O          1.0202488192        0.3334345699       -1.1687779635
 C          3.2591106887        0.2861581006       -0.3039712157
 C          3.6734704937        1.4083609977       -1.2689302795
 Cl         5.2518111870        1.1282349410       -2.0423179440
 C          3.8908631345        0.4182246397        1.0819246416
 Cl         5.6683096772        0.3182735661        1.0233468057
 C          3.5566780753       -1.0851051086       -0.9242132419
 Cl         2.6953632355       -2.3581122562       -0.0214173365
 H          0.2759571117        0.4766562427        1.0850368514
 H          3.7400501771        2.3599724383       -0.7413850400
 H          2.9442173268        1.4796100478       -2.0771512799
 H          3.5466374257       -0.3902225729        1.7265668959
 H          3.6358171946        1.3768515217        1.5324576056
 H          4.6213239409       -1.3082400546       -0.8777842726
 H          3.2012061762       -1.1229616696       -1.9534309906
