  34
        -72.17053977
 O         -1.2847616241        0.8532757618        0.7305788179
 C         -1.8314452103        0.0304761418       -0.1134579196
 O         -1.2118840225       -0.6518972565       -0.9035002100
 C         -3.3673138086        0.0124609344       -0.0483325028
 C         -3.8301723976       -0.5966940625        1.2857540098
 Cl        -3.3629611366        0.3811714733        2.6938107112
 C         -3.8413011467        1.4656181972       -0.1866580531
 Cl        -5.6153913273        1.5877879379       -0.1371739882
 C         -3.9254956757       -0.8218315348       -1.2080517007
 Cl        -3.5762451264       -2.5544802117       -1.0220714080
 H         -0.2790261500        0.8316033972        0.6972121580
 H         -3.3980445822       -1.5876491395        1.4217361111
 H         -4.9183692859       -0.6642899448        1.2898923436
 H         -3.5184450759        1.8871478122       -1.1390193479
 H         -3.4533675235        2.0619368372        0.6389837118
 H         -3.4716586415       -0.5106782244       -2.1492928317
 H         -5.0085642060       -0.7176449167       -1.2583656489
 O          1.4164964557       -0.8744901265       -1.1791570807
 C          1.9619515678       -0.0613085800       -0.3233548959
 O          1.3506404335        0.6422330680        0.4518155133
 C          3.4982341952       -0.0725527427       -0.3945683346
 C          3.9062385406        0.3516170071       -1.8095284670
 Cl         3.1102867586        1.8892409800       -2.2367698146
 C          4.0407430575        0.8967367509        0.6562809717
 Cl         5.8162658503        0.9425133441        0.6290659223
 C          3.9764791475       -1.5048659065       -0.1346666056
 Cl         3.2770089856       -2.1118377975        1.3897452329
 H          0.4107324424       -0.8612185248       -1.1331094663
 H          3.5843778721       -0.3866900118       -2.5427943288
 H          4.9823733588        0.5105194524       -1.8701847722
 H          3.7337920685        0.5841767493        1.6539077786
 H          3.6813540350        1.9067893102        0.4617531375
 H          5.0609493377       -1.5380467504       -0.0358198662
 H          3.6417138260       -2.1740213661       -0.9262018585
