  34
        -72.16734476
 O         -1.2584238800       -0.1126828698        1.7066973674
 C         -1.5887355428       -0.1109058097        0.4379050081
 O         -0.8033117133       -0.1810240524       -0.4729032323
 C         -3.1111560618        0.0039529797        0.2395476571
 C         -3.5677079539        1.3219465494        0.8736520058
 Cl        -2.5746062140        2.6686896345        0.2562886694
 C         -3.4035297521       -0.0218216927       -1.2605997958
 Cl        -5.1453209730        0.1164151807       -1.5786923155
 C         -3.7818474882       -1.1688947960        0.9605809986
 Cl        -3.0591355451       -2.7076395548        0.4223605875
 H         -0.2786722064       -0.1671786592        1.8237291238
 H         -3.4327326902        1.2984443738        1.9541649997
 H         -4.6055967455        1.5359572778        0.6202306876
 H         -3.0617415119       -0.9599341093       -1.6967467175
 H         -2.9099979178        0.8135013526       -1.7563984249
 H         -4.8462160107       -1.2077882218        0.7305586923
 H         -3.6230827053       -1.1032688458        2.0360754953
 O          3.6728877869       -0.0732376433        2.1026573617
 C          2.5702947677       -0.0925005762        1.3809232204
 O          1.4718013101       -0.1784041817        1.8706898876
 C          2.8183465938        0.0003247829       -0.1289640729
 C          2.0680792088        1.2351025018       -0.6423934294
 Cl         2.4915743966        2.6506873444        0.3534163038
 C          4.3180637925        0.1047424051       -0.4094924120
 Cl         4.6340966010        0.2115295549       -2.1583620718
 C          2.2155936308       -1.2572509790       -0.7668596047
 Cl         2.8355602758       -2.7058419055        0.0651005444
 H          3.4720320014       -0.1369111612        3.0521087865
 H          0.9905360641        1.0907359595       -0.5708730746
 H          2.3513085707        1.4572024115       -1.6701274043
 H          4.8396284771       -0.7779897929       -0.0416069354
 H          4.7317775910        1.0026611116        0.0479538428
 H          2.5006432681       -1.3310241120       -1.8152212963
 H          1.1302214302       -1.2580248263       -0.6683083378
