  34
        -72.17326189
 O         -1.4494510277       -0.0824419477       -1.1783684566
 C         -1.8960182290       -0.0815342310        0.0458526947
 O         -1.1964298539       -0.1300566945        1.0327722860
 C         -3.4271637273        0.0379175821        0.1238366735
 C         -3.7729626350        1.4904985293       -0.2409252472
 Cl        -2.8981307181        2.6398673347        0.8009081455
 C         -4.0551824184       -0.9079984043       -0.9045040450
 Cl        -5.8209491345       -0.6965020434       -0.9801525408
 C         -3.9027197989       -0.2775284187        1.5424627316
 Cl        -3.5105505051       -1.9551507089        1.9837002291
 H         -0.4428566407       -0.1136863440       -1.2162044304
 H         -4.8384019784        1.6764423230       -0.1110322722
 H         -3.4774357761        1.6994325351       -1.2693385782
 H         -3.8704544790       -1.9455446154       -0.6252757464
 H         -3.6618594301       -0.7108442038       -1.9008401048
 H         -4.9839017212       -0.1665753174        1.6148676397
 H         -3.4005981019        0.3668853840        2.2632664333
 O          1.4494412954       -0.0833813243        1.1784842270
 C          1.8959516977       -0.0827445465       -0.0457568423
 O          1.1963167289       -0.1312597611       -1.0326449415
 C          3.4271072498        0.0364682835       -0.1238173815
 C          3.7730356762        1.4887964974        0.2418075684
 Cl         2.8982176577        2.6388146383       -0.7993375719
 C          4.0551088247       -0.9101339049        0.9038993462
 Cl         5.8209158349       -0.6988903009        0.9794330207
 C          3.9025088624       -0.2781378199       -1.5426807702
 Cl         3.5106876286       -1.9556197262       -1.9847311146
 H          0.4428308823       -0.1139788644        1.2163721022
 H          4.8384805045        1.6747706633        0.1120236239
 H          3.4775059338        1.6971281676        1.2703406335
 H          3.8702260295       -1.9474982006        0.6240920049
 H          3.6619390251       -0.7134928323        1.9003981378
 H          4.9836504990       -0.1668730851       -1.6152119253
 H          3.4001015199        0.3665151551       -2.2630733201
