  34
        -72.17186661
 O         -1.1611459898        0.6341464469        1.0290373237
 C         -1.7193814512        0.1968236790       -0.0560754760
 O         -1.1196946784       -0.0992974147       -1.0708373617
 C         -3.2546623139        0.0750919830        0.0114854642
 C         -3.5661504926       -1.4149629326       -0.1789312695
 Cl        -2.5825557345       -2.3885848850        0.9442916680
 C         -3.7463440611        0.5770933386        1.3691787955
 Cl        -5.5153218636        0.4498197353        1.5342970836
 C         -3.8032073214        0.8889314244       -1.1713800032
 Cl        -5.4443465338        0.4056602103       -1.6613472250
 H         -0.1525795967        0.6592415988        0.9647158599
 H         -3.3095781733       -1.7313803846       -1.1894833489
 H         -4.6138446290       -1.6216830643        0.0332847469
 H         -3.4831789191        1.6247206477        1.5114073273
 H         -3.3075061858       -0.0204599217        2.1679008444
 H         -3.1653360605        0.7364589929       -2.0431543204
 H         -3.8433241304        1.9487614679       -0.9193950458
 O          1.5106298264       -0.2908883309       -1.3704405322
 C          2.0647815389        0.1673554390       -0.2872221222
 O          1.4607218734        0.6009584335        0.6708911453
 C          3.6002736889        0.1071006894       -0.3376944689
 C          4.0677942668        0.9300476807       -1.5427475688
 Cl         3.3579973335        2.5647266116       -1.4740455642
 C          4.1529670496        0.6712060353        0.9717856106
 Cl         5.9288229667        0.6348795009        0.9849812229
 C          4.0073580121       -1.3578466291       -0.5303056299
 Cl         3.2213088962       -2.3737580598        0.7087012154
 H          0.5054506877       -0.2503198332       -1.3348368289
 H          3.7318147202        0.4771121726       -2.4745437494
 H          5.1515525266        1.0412260397       -1.5375829969
 H          3.8041523455        0.0778512440        1.8164066353
 H          3.8431045830        1.7080637632        1.0986412233
 H          5.0845816361       -1.4772079025       -0.4200924389
 H          3.6767279398       -1.7269622036       -1.5001881946
