  34
        -72.17544221
 O         -1.2638012676       -0.0011535091        1.3576611164
 C         -1.8834149243       -0.0000101099        0.2151833413
 O         -1.3413353043        0.0013308369       -0.8695520266
 C         -3.4134602696       -0.0002994013        0.3730560464
 C         -3.8068373689        1.2494736061        1.1677355800
 Cl        -3.1111424409        2.7018548903        0.4003983738
 C         -4.0464270148        0.0013421800       -1.0187849030
 Cl        -5.8195625279        0.0025598687       -0.9160175233
 C         -3.8072382330       -1.2518497596        1.1646227785
 Cl        -3.1093416104       -2.7023804798        0.3955105928
 H         -0.2612175995       -0.0003059163        1.2536757134
 H         -3.4093174461        1.2043411564        2.1807620679
 H         -4.8892461444        1.3721622997        1.1841564808
 H         -3.7485830818       -0.8893566354       -1.5711654210
 H         -3.7472410039        0.8924556808       -1.5697377261
 H         -4.8896104650       -1.3752646070        1.1789825896
 H         -3.4115035170       -1.2085541519        2.1784447793
 O          1.2640043767        0.0011814954       -1.3569008123
 C          1.8837755456        0.0007738452       -0.2145147927
 O          1.3417385759        0.0012707045        0.8702418540
 C          3.4137569618       -0.0005047392       -0.3728225542
 C          3.8081935690        1.2490057921       -1.1673109744
 Cl         3.1145051568        2.7021743623       -0.3994037636
 C          4.0472931551        0.0000881792        1.0187521799
 Cl         5.8203758858       -0.0015626318        0.9148996872
 C          3.8056649480       -1.2524560344       -1.1647102357
 Cl         3.1043922522       -2.7019724320       -0.3964991865
 H          0.2614164672        0.0013519110       -1.2527807473
 H          3.4101595698        1.2045828881       -2.1801850416
 H          4.8907258481        1.3705121098       -1.1842415127
 H          3.7482292467       -0.8901139598        1.5712011706
 H          3.7498524460        0.8917156281        1.5697750609
 H          4.8877820571       -1.3780599023       -1.1784547374
 H          3.4105605010       -1.2080323426       -2.1787209546
