  42
        -48.12797185
 C          2.5717426655       -1.5535533002        1.4807444722
 C          2.3349308179       -1.2483684188       -0.0002150646
 O          0.9772872495       -1.4388543751       -0.3190123491
 C          2.8550633891        0.1493356364       -0.4445602749
 C          2.3077818204        1.2668594272        0.4477031773
 C          4.3852241431        0.1763091534       -0.4073604027
 C          2.3970036187        0.3866649898       -1.8875029401
 H          1.9910983559       -0.8765633668        2.1029984707
 H          3.6222050105       -1.4696690908        1.7407805921
 H          2.2444264254       -2.5702674405        1.6871527661
 H          2.8623886249       -1.9995947287       -0.6025889125
 H          0.4450049372       -0.8411641417        0.2288817485
 H          1.2279563520        1.1954406793        0.5449839579
 H          2.5485086611        2.2358844517        0.0147112441
 H          2.7495944057        1.2241126240        1.4403026229
 H          4.7476965455        1.1229767144       -0.8029426105
 H          4.7995809695       -0.6276232668       -1.0118853822
 H          4.7595767650        0.0718478132        0.6077464487
 H          1.3127737530        0.3499937954       -1.9508773790
 H          2.7986159365       -0.3825905116       -2.5431513719
 H          2.7371214388        1.3575889074       -2.2411724262
 C         -2.0632280991        2.3024669377        0.4871305374
 C         -1.7320673301        0.8529105034        0.1294828789
 O         -0.8828329804        0.2978889094        1.1211923121
 C         -2.9659964959       -0.0487267021       -0.1360050927
 C         -2.4623680028       -1.4090229474       -0.6298888103
 C         -3.7978412335       -0.2596043736        1.1338188091
 C         -3.8469865419        0.5789108186       -1.2186960335
 H         -2.7116132871        2.3559423100        1.3591145026
 H         -2.5441190625        2.8074849262       -0.3436651054
 H         -1.1381406054        2.8269785121        0.7183670908
 H         -1.1196697692        0.8518644186       -0.7798445527
 H         -1.3695466302        0.2769886075        1.9527738386
 H         -1.7818341768       -1.8546610660        0.0904566810
 H         -1.9254841890       -1.3004165655       -1.5686707566
 H         -3.2977801792       -2.0877895077       -0.7847496793
 H         -3.2309470933       -0.7967105052        1.8925563918
 H         -4.6749670980       -0.8569116723        0.8962888872
 H         -4.1415360053        0.6851710773        1.5495932784
 H         -4.3543041877        1.4671608390       -0.8512080045
 H         -4.6045747803       -0.1345984370       -1.5347152503
 H         -3.2518946906        0.8499125793       -2.0877668445
