  42
        -48.12806919
 C          2.3384430912        0.7988173698        2.1277217580
 C          2.2674432584       -0.3650901600        1.1370322212
 O          0.9323665604       -0.7872079221        0.9878345226
 C          2.9444920334       -0.0720546366       -0.2324545528
 C          4.4543157465        0.0995178831       -0.0477131389
 C          2.6955541936       -1.2768773411       -1.1461357513
 C          2.3679553898        1.1837876493       -0.8918356181
 H          1.8806011508        0.4900365939        3.0651005971
 H          1.7875815314        1.6555089480        1.7463935400
 H          3.3652295376        1.0902075900        2.3247002032
 H          2.7793342196       -1.2313165947        1.5763861196
 H          0.4092426400       -0.0340871411        0.6743621505
 H          4.6848851596        0.9960905044        0.5218537519
 H          4.9375484977        0.1857098327       -1.0188158213
 H          4.8791622914       -0.7577078012        0.4702406292
 H          3.1285521706       -2.1762895241       -0.7140388010
 H          3.1411082171       -1.1124551241       -2.1247752603
 H          1.6285292309       -1.4411757148       -1.2702160505
 H          1.2834866107        1.1335743328       -0.9479408767
 H          2.7573677302        1.2793179050       -1.9035239226
 H          2.6476237986        2.0780337017       -0.3400422702
 C         -2.1528930183        0.5373792282       -2.2394778795
 C         -1.7685227246        0.1130036973       -0.8221706171
 O         -0.9650607514        1.1195813090       -0.2252704733
 C         -2.9632253963       -0.2785192356        0.0868539088
 C         -3.6456123396       -1.5294336379       -0.4708471490
 C         -2.4140264678       -0.5961755199        1.4824118313
 C         -3.9919505137        0.8513168572        0.1993568966
 H         -2.7798565833        1.4265869429       -2.2254413220
 H         -2.6775010087       -0.2591168027       -2.7563134334
 H         -1.2470122665        0.7696086664       -2.7957551010
 H         -1.1057267230       -0.7574228417       -0.8843510009
 H         -1.4941662312        1.9224139082       -0.1572518661
 H         -4.1270812985       -1.3283602280       -1.4243793154
 H         -4.4083719170       -1.8742038562        0.2235393957
 H         -2.9220673415       -2.3294315065       -0.6074939744
 H         -1.6440106177       -1.3610504850        1.4250120478
 H         -3.2128525326       -0.9498728376        2.1298944205
 H         -1.9729156344        0.2888392724        1.9340776628
 H         -4.4638852341        1.0553261220       -0.7588050611
 H         -3.5371251157        1.7688085373        0.5705134948
 H         -4.7713991981        0.5638424169        0.9012794867
