  42
        -48.12911457
 C          1.9210059370       -1.4796350072        1.3449968285
 C          2.4806599711       -0.9986968003        0.0028029763
 O          1.5178571857       -1.1692181190       -1.0104606068
 C          3.0459046374        0.4489432791        0.0383095214
 C          4.2685473199        0.5139451135        0.9575094675
 C          3.4815245681        0.8182288471       -1.3837647712
 C          1.9983277868        1.4570902633        0.5200043655
 H          1.5835281794       -2.5084842459        1.2375214256
 H          1.0707628756       -0.8718229599        1.6444142556
 H          2.6773473949       -1.4455861662        2.1225114954
 H          3.3022822540       -1.6661370478       -0.2886373606
 H          0.7683086685       -0.5777382175       -0.8235650695
 H          4.7369797084        1.4928453282        0.8788827108
 H          5.0021296445       -0.2390451777        0.6773756094
 H          3.9926190422        0.3576323130        1.9971687896
 H          4.2606284670        0.1419829089       -1.7286704300
 H          3.8668330641        1.8350082648       -1.4123801663
 H          2.6406924847        0.7432116997       -2.0681576069
 H          1.7580609269        1.2997443645        1.5688519917
 H          1.0829389161        1.3875884190       -0.0627169621
 H          2.3881626994        2.4675415274        0.4153260081
 C         -1.8785303834       -1.8249250896       -0.1945399472
 C         -1.8049747992       -0.3270498285        0.0978221963
 O         -0.9302565734        0.3060295361       -0.8226504876
 C         -3.1780731544        0.3944567951        0.1503838475
 C         -4.1061540582       -0.3094195893        1.1422014660
 C         -2.9316214361        1.8308464643        0.6250623247
 C         -3.8449186364        0.4365191463       -1.2283761000
 H         -2.3550056856       -2.3561834115        0.6228344036
 H         -0.8687273783       -2.2113739100       -0.3164358582
 H         -2.4289668297       -2.0198195527       -1.1123753835
 H         -1.3201761783       -0.1830265344        1.0710815635
 H         -1.2531630398        0.1226981143       -1.7126463442
 H         -4.4262359410       -1.2765547173        0.7639929524
 H         -4.9930585820        0.2976174873        1.3097757896
 H         -3.6080613518       -0.4558058194        2.0981382142
 H         -2.5665955378        1.8359320337        1.6496699406
 H         -3.8511312177        2.4096324413        0.5835341362
 H         -2.1873795849        2.3129580080       -0.0042941741
 H         -3.9953519018       -0.5631723793       -1.6296773757
 H         -3.2516175911        1.0164185924       -1.9330036238
 H         -4.8193335635        0.9123898179       -1.1463609732
