  42
        -48.12902567
 C          2.7532388193       -1.9198552982       -0.5271178554
 C          2.4636634480       -0.4571124095       -0.8732289738
 O          1.1343178509       -0.3269236638       -1.3198625244
 C          2.7970829436        0.5387612323        0.2733230299
 C          4.3098897547        0.5873542590        0.5026430945
 C          2.3225687599        1.9315796505       -0.1550807280
 C          2.0990461278        0.1506314207        1.5799687792
 H          2.1087181762       -2.2515412675        0.2835474411
 H          3.7909648814       -2.0621706066       -0.2430092694
 H          2.5466971327       -2.5352447270       -1.4002265939
 H          3.0717783928       -0.1750507525       -1.7425075146
 H          0.5434785835       -0.5760035214       -0.5886174656
 H          4.6857038000       -0.3614308345        0.8767482240
 H          4.5475253743        1.3548577199        1.2363848185
 H          4.8319903943        0.8251430395       -0.4216904657
 H          2.8145544267        2.2323431777       -1.0773194844
 H          2.5515145277        2.6645956740        0.6154240197
 H          1.2502285411        1.9306843142       -0.3291473689
 H          2.5282101511       -0.7572952870        1.9966727905
 H          1.0348402828       -0.0076264503        1.4258454539
 H          2.2216803456        0.9460141831        2.3123993862
 C         -2.9456244329       -1.0296365910        1.8321401138
 C         -2.0474935028       -0.2421836661        0.8763560623
 O         -0.9527121685       -1.0537880201        0.4833389185
 C         -2.7864355159        0.3634591217       -0.3477276416
 C         -4.0472484912        1.0996449708        0.1131617044
 C         -1.8545823317        1.3662771942       -1.0367730207
 C         -3.1705990103       -0.7232126990       -1.3577948857
 H         -2.3205254697       -1.5076525766        2.5839135666
 H         -3.4988318635       -1.8038327360        1.3044094771
 H         -3.6478013424       -0.3752379385        2.3373212145
 H         -1.5859275782        0.5808744274        1.4347878244
 H         -1.3074749299       -1.8224783402        0.0213287426
 H         -4.8092083998        0.4054458541        0.4573541403
 H         -4.4613669859        1.6693762818       -0.7157094681
 H         -3.8148228655        1.7929760145        0.9185146771
 H         -1.6090586060        2.1830013406       -0.3609052884
 H         -2.3404373327        1.7849056381       -1.9151519197
 H         -0.9322552694        0.8873970442       -1.3543943821
 H         -3.7561989494       -1.5145584117       -0.8933457144
 H         -2.2845722776       -1.1550669774       -1.8192562856
 H         -3.7731439379       -0.2850073611       -2.1496796470
