  42
        -48.12806897
 C          2.0420652101        2.3316385124        0.5922904716
 C          1.7295684468        0.8772726918        0.2404944965
 O          0.8692851770        0.8344889017       -0.8878395368
 C          2.9746186741       -0.0273181399        0.0443162220
 C          3.7367848094       -0.1474008928        1.3657668579
 C          2.4886223619       -1.4197557637       -0.3740095256
 C          3.9153150104        0.5188860688       -1.0346746953
 H          1.1064105652        2.8705388192        0.7269806272
 H          2.6009067631        2.8161610472       -0.2057780404
 H          2.6103834417        2.3964335777        1.5140138375
 H          1.1327383142        0.4414240040        1.0495839766
 H          1.3375885873        1.2238221414       -1.6349940344
 H          4.5401029098       -0.8734193730        1.2636355686
 H          3.0733144123       -0.4822919789        2.1594143730
 H          4.1784572581        0.8018154412        1.6579824522
 H          1.7801137796       -1.8111252532        0.3512989928
 H          3.3293834411       -2.1052927653       -0.4489626480
 H          1.9908759362       -1.3805742748       -1.3397035086
 H          4.7350540231       -0.1791180538       -1.1885685829
 H          4.3416006591        1.4756276051       -0.7425630073
 H          3.4016377131        0.6382139341       -1.9877343597
 C         -2.3290518926       -1.5654961050       -1.6626837005
 C         -2.1972811170       -1.3070900958       -0.1603030788
 O         -0.8385130645       -1.3087916521        0.2092705519
 C         -2.9343139340       -0.0274115226        0.3284679244
 C         -4.4468591567       -0.1950497298        0.1634162128
 C         -2.6201659630        0.1549348334        1.8172485550
 C         -2.4753150710        1.2172363792       -0.4360544469
 H         -3.3691403736       -1.6499288339       -1.9611822337
 H         -1.8231536409       -2.4979731000       -1.9039163186
 H         -1.8556993704       -0.7659649173       -2.2279175532
 H         -2.6277634258       -2.1596636607        0.3812031565
 H         -0.3849667224       -0.6196725648       -0.2991672943
 H         -4.7290211045       -0.2383757319       -0.8853545958
 H         -4.9632065872        0.6496550228        0.6149021555
 H         -4.7894149936       -1.1051129125        0.6513335740
 H         -2.9717598344       -0.7025106094        2.3867373045
 H         -3.1036464648        1.0498795332        2.2027298807
 H         -1.5475789886        0.2439633555        1.9675374113
 H         -2.8039599723        1.1825452685       -1.4719793955
 H         -1.3924834081        1.3112381002       -0.4167434925
 H         -2.9027434916        2.1075568432        0.0210306562
