  42
        -48.12906644
 C          2.7503488288       -1.1719816416       -1.5589877712
 C          2.4406952650        0.2290922630       -1.0265454138
 O          1.0955107191        0.5535368192       -1.2898320296
 C          2.8074005083        0.4300144292        0.4710599020
 C          2.3500443459        1.8331539221        0.8841886679
 C          2.1192355159       -0.6058824083        1.3644146293
 C          4.3234716576        0.3341158796        0.6601684022
 H          2.1428360920       -1.9143680782       -1.0466713528
 H          3.8000256072       -1.4192484466       -1.4373398447
 H          2.5083231749       -1.2064385312       -2.6191819447
 H          3.0167296498        0.9610150757       -1.6075552623
 H          0.5338210866       -0.0931416695       -0.8293796819
 H          2.8546433256        2.5876089689        0.2847435940
 H          2.5769450601        2.0144737477        1.9325208024
 H          1.2795679733        1.9422203434        0.7337119229
 H          1.0487268009       -0.6351168447        1.1793242457
 H          2.2765662929       -0.3515910205        2.4106699441
 H          2.5273662141       -1.5994870544        1.1962105704
 H          4.8393135117        1.0194502232       -0.0090336647
 H          4.6847529388       -0.6729960504        0.4688650238
 H          4.5846143294        0.5949238400        1.6837551818
 C         -2.8647874132       -2.0931788115        0.8352058968
 C         -2.0190910922       -0.8440675750        0.5812214559
 O         -0.9154852111       -1.1808797317       -0.2431235190
 C         -2.8123078525        0.3661422247        0.0182174630
 C         -4.0606974468        0.6136695400        0.8691976716
 C         -1.9176214710        1.6089748991        0.0804281519
 C         -3.2259185990        0.1325034609       -1.4387004322
 H         -3.4115268907       -2.3869972931       -0.0584230975
 H         -3.5695244253       -1.9303667672        1.6435496729
 H         -2.2035648230       -2.9106553600        1.1160629478
 H         -1.5631618337       -0.5370734138        1.5301393074
 H         -1.2632299562       -1.5075502901       -1.0813277900
 H         -4.8005871928       -0.1692056529        0.7255206279
 H         -4.5145114843        1.5608858517        0.5864659925
 H         -3.8028006353        0.6627622857        1.9248700807
 H         -1.6455916077        1.8306081695        1.1104485835
 H         -2.4441835411        2.4692419109       -0.3264243519
 H         -1.0082331539        1.4629925900       -0.4963741254
 H         -3.7957028828       -0.7878711537       -1.5519782651
 H         -2.3543122538        0.0978360100       -2.0895551627
 H         -3.8533739756        0.9550743147       -1.7732498637
