  42
        -48.12881174
 C          2.6595321179       -1.9313166352       -0.6255427206
 C          2.4356097056       -0.4435508916       -0.9095630536
 O          1.0997194857       -0.2286104067       -1.2995749582
 C          2.8648932612        0.4916734384        0.2558865110
 C          4.3867724325        0.4606061381        0.4188555728
 C          2.4389899324        1.9198029934       -0.1014457539
 C          2.2067129444        0.0885050748        1.5786313402
 H          2.0345602378       -2.2573418290        0.2024667937
 H          3.6995204707       -2.1386855659       -0.3945521813
 H          2.3812347609       -2.5028138301       -1.5085506177
 H          3.0251374037       -0.1631165472       -1.7921038255
 H          0.5240706765       -0.4497569259       -0.5473731495
 H          4.7320434725       -0.5204324396        0.7350388314
 H          4.6923668368        1.1828528255        1.1731498938
 H          4.8797802697        0.7147279285       -0.5170662483
 H          2.9097616091        2.2343414088       -1.0300931876
 H          2.7291121128        2.6113092761        0.6865252473
 H          1.3617925666        1.9722679178       -0.2342441884
 H          2.6055887672       -0.8559198037        1.9408848211
 H          1.1294311772       -0.0077035454        1.4698677469
 H          2.4051228735        0.8469854468        2.3332505716
 C         -2.8638614417       -0.7190256184        2.0088724856
 C         -2.0395720561       -0.0669507152        0.8970307873
 O         -0.9235558411       -0.8889086278        0.5960035902
 C         -2.8506281815        0.2933479737       -0.3772587165
 C         -4.1436492831        1.0166221850        0.0089083089
 C         -2.0056576643        1.2284758647       -1.2493766605
 C         -3.1926398640       -0.9616186212       -1.1882145798
 H         -3.4052036307       -1.5878290644        1.6399094171
 H         -3.5716799945       -0.0159598345        2.4345378667
 H         -2.1886808172       -1.0456927313        2.7974574752
 H         -1.5960139413        0.8553720136        1.2900723130
 H         -1.2587197183       -1.7328476289        0.2710409194
 H         -4.8484986109        0.3424819900        0.4882033767
 H         -4.6172021386        1.4190262445       -0.8838273609
 H         -3.9347599141        1.8437047323        0.6838049503
 H         -1.8154149015        2.1643168818       -0.7279964423
 H         -2.5327111130        1.4541871322       -2.1736043326
 H         -1.0516300444        0.7743321052       -1.5027996977
 H         -3.7009589530       -1.7072210314       -0.5790972646
 H         -2.2956994421       -1.4010241350       -1.6205135581
 H         -3.8553989039       -0.6944706850       -2.0077060842
