  42
        -48.12797825
 C          2.2057902707       -0.3394267977        1.9952559312
 C          2.5339733742       -0.8158728727        0.5807097632
 O          1.3919001411       -1.3872983923       -0.0158977113
 C          3.1605590636        0.2748929774       -0.3365150429
 C          4.3589022367        0.9362998569        0.3462103499
 C          3.6335281285       -0.4197218756       -1.6181533806
 C          2.1302902633        1.3437093074       -0.7112720577
 H          1.4964906344        0.4848168221        1.9685504471
 H          3.0994854672       -0.0298470380        2.5274972216
 H          1.7468125210       -1.1610434550        2.5413076686
 H          3.2613705156       -1.6362138595        0.6493727100
 H          0.6376834200       -0.8048400186        0.1810468871
 H          4.0418993672        1.5795690275        1.1629059513
 H          4.9012334601        1.5470743679       -0.3730080993
 H          5.0412873013        0.1848823909        0.7376989444
 H          4.4633937973       -1.0895523844       -1.4041321826
 H          3.9600511897        0.3114990894       -2.3545701752
 H          2.8214082494       -1.0066955719       -2.0400637971
 H          1.7053513968        1.8094458591        0.1748197586
 H          1.3315033577        0.9009106728       -1.3011792261
 H          2.6044569253        2.1196132223       -1.3090417092
 C         -1.7452653257       -0.9340629269       -1.5215863938
 C         -1.9912386256       -0.4986021977       -0.0772286574
 O         -0.9098389987        0.2987298704        0.3777828053
 C         -3.3498985237        0.2110705185        0.1667350569
 C         -4.5017951066       -0.6667010274       -0.3268641392
 C         -3.4976160295        0.4277917749        1.6768499132
 C         -3.4106098499        1.5705344144       -0.5381447728
 H         -1.7732572194       -0.0826415363       -2.1992885673
 H         -2.4847945597       -1.6614402249       -1.8385104121
 H         -0.7621571932       -1.3957188152       -1.5864517255
 H         -1.9576028185       -1.3867571602        0.5639314632
 H         -0.8502148392        1.0703865081       -0.1983622835
 H         -4.5336560348       -0.7021049540       -1.4125138636
 H         -5.4484407783       -0.2622753764        0.0246378189
 H         -4.4021928709       -1.6809928595        0.0529804392
 H         -3.5827354747       -0.5270157616        2.1904440368
 H         -4.3855110726        1.0171655481        1.8930884909
 H         -2.6281825361        0.9493203995        2.0699180986
 H         -3.2525834492        1.4709204137       -1.6097155880
 H         -2.6706230804        2.2581473815       -0.1319599092
 H         -4.3915088860        2.0150039115       -0.3861879664
