  42
        -48.12816996
 C          1.8376266497        0.7503950248        2.0102560642
 C          2.1935988072       -0.3615867732        1.0211044375
 O          1.0207067715       -0.9923532599        0.5642513148
 C          3.0983804391        0.1022879329       -0.1557166197
 C          4.4519750878        0.5832103569        0.3727333120
 C          3.3264473950       -1.1059320548       -1.0702273265
 C          2.4410693167        1.2240155064       -0.9644649472
 H          2.7271014050        1.1838826297        2.4561424214
 H          1.2227084813        0.3300832073        2.8033782668
 H          1.2666803469        1.5315719748        1.5137619893
 H          2.7362437153       -1.1487358971        1.5608650415
 H          0.4590901186       -0.3166394320        0.1552401606
 H          5.1285253729        0.7666725082       -0.4594857496
 H          4.9018585454       -0.1672421791        1.0193161057
 H          4.3526314210        1.5088026896        0.9338919426
 H          3.8525037482       -1.8929466278       -0.5343860415
 H          3.9172767757       -0.8227736611       -1.9385200145
 H          2.3734313445       -1.5042793087       -1.4080309187
 H          1.4450689212        0.9371568101       -1.2928735303
 H          3.0407322126        1.4408356806       -1.8461558412
 H          2.3661327462        2.1368876489       -0.3782774304
 C         -2.5708176777       -0.0342052987       -2.3036454281
 C         -1.9454079064       -0.1987184700       -0.9188240788
 O         -0.9391641829        0.7842316892       -0.7305065824
 C         -2.9603601969       -0.2090683635        0.2553551654
 C         -3.8748510174       -1.4299159789        0.1347006312
 C         -2.1706830744       -0.3104327409        1.5653453837
 C         -3.8145083965        1.0625660231        0.2853894382
 H         -3.0935793651        0.9165217319       -2.3871750031
 H         -3.2641921222       -0.8406945123       -2.5169380262
 H         -1.7803739292       -0.0540527051       -3.0510145379
 H         -1.3998301003       -1.1487476926       -0.8911283720
 H         -1.3548341935        1.6521185256       -0.7888236163
 H         -4.5241070190       -1.3558453346       -0.7338237444
 H         -4.5046135690       -1.5081635220        1.0180056288
 H         -3.2864038612       -2.3405904081        0.0532216418
 H         -2.8507107196       -0.3935889090        2.4099581398
 H         -1.5508224995        0.5708616841        1.7098126846
 H         -1.5202066772       -1.1811812821        1.5520072840
 H         -4.4599135452        1.0458969181        1.1606776578
 H         -4.4481262641        1.1362790145       -0.5951857167
 H         -3.1952743380        1.9562867957        0.3498922708
