  42
        -48.12913691
 C          3.1018323882       -1.9330045203       -0.6700029427
 C          2.1132318532       -0.7740215836       -0.5327760512
 O          1.0136691813       -1.1818152001        0.2635140829
 C          2.7410959658        0.5489022496       -0.0154704235
 C          3.9859764921        0.8918053544       -0.8378368480
 C          1.7140901779        1.6748341236       -0.1792345287
 C          3.1189879962        0.4451574404        1.4659006734
 H          3.6308022955       -2.1118886682        0.2637942121
 H          3.8250913917       -1.7392773278       -1.4548465073
 H          2.5488920091       -2.8340868488       -0.9281003892
 H          1.6743360274       -0.5774963078       -1.5184263123
 H          1.3559493761       -1.4417075632        1.1271012090
 H          4.8022989562        0.2065711519       -0.6257522882
 H          4.3203090252        1.8978565276       -0.5946302722
 H          3.7655617799        0.8554267593       -1.9025050668
 H          2.1307849531        2.6150700656        0.1746746165
 H          0.8156584553        1.4647061614        0.3948660588
 H          1.4408462538        1.7943082862       -1.2257330020
 H          3.7928415216       -0.3890665618        1.6510759747
 H          2.2317499451        0.3346303607        2.0864725614
 H          3.6253360943        1.3564102270        1.7749956541
 C         -2.5942516566       -1.6136217982        1.2093812890
 C         -2.4515096056       -0.1078220330        0.9814433279
 O         -1.1562091036        0.3101709228        1.3461897451
 C         -2.8234998000        0.3551510239       -0.4558671302
 C         -4.2866135238        0.0240403607       -0.7596941974
 C         -2.6392457340        1.8753621693       -0.5176031754
 C         -1.9253073152       -0.3004438373       -1.5078654071
 H         -1.9076648061       -2.1604087016        0.5670685482
 H         -3.6091033431       -1.9489141522        1.0217766442
 H         -2.3430513083       -1.8374460709        2.2442047557
 H         -3.1180920938        0.4183490929        1.6773496859
 H         -0.5201467013       -0.2282185229        0.8444794903
 H         -4.9369220177        0.3894679393        0.0323594131
 H         -4.4369821305       -1.0471682376       -0.8655624036
 H         -4.5853336284        0.4981554355       -1.6924136970
 H         -3.3304754885        2.3687924996        0.1621179389
 H         -2.8227032206        2.2424392420       -1.5249731392
 H         -1.6273525750        2.1434981934       -0.2259961286
 H         -2.0865754613       -1.3748215504       -1.5477070939
 H         -0.8763781022       -0.1145244210       -1.2935931793
 H         -2.1498908081        0.1100745400       -2.4903129588
