  42
        -48.12810587
 C          2.0282831602        0.7989111979        2.0712991156
 C          2.2202857187       -0.3478718293        1.0764080034
 O          0.9706723821       -0.8971851643        0.7317907018
 C          3.0531908937        0.0360400866       -0.1796895815
 C          4.4914662007        0.3715398037        0.2223302844
 C          3.0738608363       -1.1772906717       -1.1154809267
 C          2.4412452473        1.2281035646       -0.9206625275
 H          1.4695522784        0.4294655855        2.9286777073
 H          1.4579095554        1.6048122689        1.6152548987
 H          2.9805714505        1.1853811986        2.4202292325
 H          2.7487725281       -1.1661607635        1.5827504980
 H          0.4301492566       -0.1916980596        0.3455043014
 H          4.9270828336       -0.4372553891        0.8051961218
 H          4.5364745737        1.2843960581        0.8106819034
 H          5.0993874261        0.5163436599       -0.6684170499
 H          3.5447636437       -2.0263369712       -0.6250514067
 H          3.6275714376       -0.9498783151       -2.0237257608
 H          2.0599217688       -1.4611881609       -1.3843603675
 H          2.5275139937        2.1394280055       -0.3336798805
 H          1.3913048059        1.0532960974       -1.1427358553
 H          2.9661684731        1.3847091994       -1.8608901303
 C         -2.4159240500        0.1149713763       -2.3127882492
 C         -1.8805253983       -0.1017079651       -0.8977178877
 O         -0.9436739852        0.9167909812       -0.5814368516
 C         -2.9714904083       -0.2331074090        0.1980419372
 C         -3.8141208411       -1.4835005346       -0.0621312761
 C         -2.2689579341       -0.3830660060        1.5522653664
 C         -3.8873936034        0.9942604457        0.2448003547
 H         -3.0439263005       -0.7133164663       -2.6230465762
 H         -1.5751437126        0.1847138252       -2.9998891763
 H         -2.9864544875        1.0391525266       -2.3793104359
 H         -1.2886655526       -1.0238653212       -0.8846032141
 H         -1.4024209141        1.7640926829       -0.6129769287
 H         -4.4078593012       -1.3813443747       -0.9667964608
 H         -4.4957029397       -1.6487342718        0.7691635329
 H         -3.1769352538       -2.3590446366       -0.1601883412
 H         -1.5804837480       -1.2238853412        1.5340174430
 H         -3.0005348834       -0.5455164767        2.3403276106
 H         -1.6998888072        0.5117275108        1.7919205086
 H         -3.3197153925        1.9078779452        0.4158304988
 H         -4.5944270136        0.8884279747        1.0644393801
 H         -4.4567826543        1.1006009028       -0.6753874037
