  34
        -41.76106110
 C          1.7836839735        1.3025442380       -0.5178221618
 C          2.9284921034        0.2903052586       -0.4769053103
 C          4.0133965226        0.7018088896       -1.4781338059
 C          3.5245561533        0.2299381918        0.9301528117
 C          2.4306278846       -1.0940984268       -0.9001043241
 Cl         1.1805281165       -1.7395640041        0.1867075744
 H          2.1485745462        2.2913420146       -0.2522261146
 H          1.0013979786        1.0313964879        0.1851241129
 H          1.3502950937        1.3532294819       -1.5144150278
 H          4.3991805547        1.6849776511       -1.2219113383
 H          3.6110286956        0.7446673504       -2.4878663015
 H          4.8408218781       -0.0044651255       -1.4664430300
 H          2.7690557512       -0.0660337579        1.6537450209
 H          3.9068531776        1.2063695420        1.2163846559
 H          4.3430614454       -0.4862219599        0.9715756140
 H          3.2443151596       -1.8206674541       -0.8898331981
 H          1.9845030735       -1.0601287318       -1.8948202315
 C         -4.0585009384        0.4449851798       -0.2908790137
 C         -2.7217409727       -0.2936851712       -0.2141420356
 C         -2.9622981099       -1.8067025991       -0.2251596722
 C         -1.8403488556        0.0894783248       -1.4032401947
 C         -2.0082321946        0.0374690604        1.0985550989
 Cl        -1.6291638802        1.7713925818        1.2558336230
 H         -4.5731853058        0.1965030417       -1.2158659481
 H         -3.9015402241        1.5204147344       -0.2628199740
 H         -4.6986335186        0.1677420633        0.5442103940
 H         -2.0184947452       -2.3431592553       -0.1606917126
 H         -3.4624648190       -2.0972825477       -1.1455072394
 H         -3.5867719378       -2.1056476391        0.6137802607
 H         -1.6317358632        1.1563040783       -1.3956519715
 H         -2.3399348358       -0.1586000999       -2.3366418735
 H         -0.8981338037       -0.4504182335       -1.3595552112
 H         -1.0597370163       -0.4953822143        1.1654525289
 H         -2.6326710363       -0.2171731653        1.9554198733
