  34
        -41.76112546
 C          4.0753244915       -0.1639598657       -0.5009572796
 C          2.7020148559        0.4624453058       -0.2555394135
 C          2.8675544678        1.9165343610        0.1977474645
 C          1.8697157181        0.4229986350       -1.5376878827
 C          1.9747593417       -0.2782947131        0.8689207740
 Cl         1.7064731950       -2.0003280840        0.4976984590
 H          3.9714235809       -1.2000420014       -0.8135458637
 H          4.6773023848       -0.1356489614        0.4050657318
 H          4.6024382021        0.3794804492       -1.2813397410
 H          3.4594997730        1.9734507188        1.1085355513
 H          1.8970533521        2.3695595433        0.3868028362
 H          3.3710718509        2.4915632431       -0.5750595379
 H          1.6965674935       -0.6039781118       -1.8503307525
 H          2.3889331719        0.9433569691       -2.3387938834
 H          0.9101267643        0.9096211104       -1.3781230124
 H          0.9917316864        0.1587233778        1.0418191232
 H          2.5566175648       -0.2521613645        1.7907089846
 C         -3.2237538562        0.4311035281       -1.5470527099
 C         -2.9348233992       -0.3185749388       -0.2456006288
 C         -4.1811706073       -1.0981721634        0.1868532036
 C         -1.7689025303       -1.2862105682       -0.4473606016
 C         -2.6139117259        0.6730722660        0.8755925150
 Cl        -1.2004715896        1.6881160219        0.5135054771
 H         -3.4747320779       -0.2729889735       -2.3362227016
 H         -2.3534103409        1.0014473973       -1.8622609899
 H         -4.0587933964        1.1172375575       -1.4192254248
 H         -3.9957893084       -1.6405153340        1.1112335600
 H         -4.4529906067       -1.8164831554       -0.5820630289
 H         -5.0239235913       -0.4280433450        0.3428902473
 H         -0.8762370691       -0.7533671995       -0.7614912678
 H         -2.0157162555       -2.0167457537       -1.2133844229
 H         -1.5438617500       -1.8197817696        0.4733641067
 H         -2.3847234742        0.1492897521        1.8043218443
 H         -3.4454660794        1.3600864881        1.0389306604
