  34
        -41.76262685
 C          3.9602063139       -0.7156158720       -0.2177488961
 C          2.8189139878        0.3022499364       -0.2401279075
 C          3.3915161937        1.7232966500       -0.2260451681
 C          1.9650001000        0.1099689911       -1.4936863106
 C          1.9531657034        0.1577148027        1.0128403234
 Cl         1.1895054450       -1.4458468846        1.1369292742
 H          4.5825765579       -0.6011342627       -1.1017899375
 H          3.5687887888       -1.7301134680       -0.2042211754
 H          4.5840890699       -0.5745363248        0.6627845196
 H          4.0219924846        1.8780665447       -1.0978082190
 H          3.9920677305        1.8910198029        0.6654467244
 H          2.5903072131        2.4584126330       -0.2465073169
 H          1.5573586151       -0.8970403388       -1.5296398631
 H          2.5662302667        0.2686005121       -2.3854733894
 H          1.1401765457        0.8184868769       -1.5009838663
 H          1.1434394041        0.8869721099        1.0039310531
 H          2.5500093896        0.2796438996        1.9175560120
 C         -3.8906394410        0.3420200578       -0.9945745970
 C         -2.7858119593       -0.4756042679       -0.3237953742
 C         -3.4007956414       -1.6643858409        0.4218881414
 C         -1.7982313222       -0.9882147125       -1.3723492681
 C         -2.0537096042        0.3734555473        0.7171057664
 Cl        -1.2564755317        1.7962728620        0.0029656713
 H         -4.4186602982       -0.2675861211       -1.7236514785
 H         -3.4713766700        1.2036365342       -1.5088083925
 H         -4.6087981664        0.6957825190       -0.2573007093
 H         -2.6251848231       -2.2586893162        0.8993627046
 H         -3.9408099304       -2.3003480455       -0.2747860374
 H         -4.0965408022       -1.3252761321        1.1864157102
 H         -0.9996767603       -1.5513986585       -0.8953763216
 H         -1.3580352227       -0.1602824772       -1.9221589744
 H         -2.3061413422       -1.6384985316       -2.0802193694
 H         -1.2714373099       -0.2088617473        1.2034258055
 H         -2.7467952602        0.7588117963        1.4659265492
