  34
        -41.76033214
 C          1.3919539877        0.1706631294        1.4236813937
 C          2.3508708683        0.6764047610        0.3456029750
 C          1.7371691122        1.8924258132       -0.3558561433
 C          3.6906274615        1.0629198758        0.9731358888
 C          2.5540525504       -0.4035349885       -0.7196714243
 Cl         3.2557271070       -1.8992810172       -0.0535026836
 H          1.2131002478        0.9472161727        2.1636148214
 H          1.8082090331       -0.6981362245        1.9273364986
 H          0.4422947842       -0.1087714911        0.9757935897
 H          0.7994393307        1.6227304795       -0.8354804061
 H          2.4115213678        2.2810838811       -1.1156252802
 H          1.5437827512        2.6810585142        0.3670864518
 H          3.5455367136        1.8397706538        1.7200070933
 H          4.3753662681        1.4375462186        0.2150777150
 H          4.1477972511        0.2024780142        1.4551814112
 H          3.2407570653       -0.0618664471       -1.4946897047
 H          1.6018919255       -0.6830015903       -1.1710953227
 C         -2.3670781453        1.3903914662        1.0558375268
 C         -3.2958968594        0.4020243378        0.3492076239
 C         -4.3231316184       -0.1414240202        1.3479114906
 C         -4.0198556214        1.0976515649       -0.8046413734
 C         -2.4976258619       -0.7948878062       -0.1740818967
 Cl        -1.2744569727       -0.3283302595       -1.3792920293
 H         -2.9371287605        2.2369373117        1.4303202372
 H         -1.6108593493        1.7632199342        0.3699102998
 H         -1.8674670584        0.9136878307        1.8963755350
 H         -5.0003714191       -0.8417932600        0.8642410954
 H         -4.9111638970        0.6762499549        1.7564399564
 H         -3.8290261834       -0.6527047869        2.1709934369
 H         -4.6165867138        1.9247259843       -0.4284383810
 H         -4.6808044722        0.4025683247       -1.3184017704
 H         -3.3054179774        1.4901647918       -1.5239685507
 H         -3.1524917668       -1.5131544891       -0.6689044314
 H         -1.9601516382       -1.2900980665        0.6355401570
