%nprocshared=4
%mem=8000mb
%chk=19.chk
%nprocshared=4
%mem=8000mb
#T wB97XD/def2svpp opt=tight freq int(grid=ultrafine) scf=(verytight,qc) Volume=tight

Dimer

0 1
 C          2.2548819173        0.7666247694        1.3735050515
 C          2.8114458784        0.3671074465        0.0061989595
 C          3.1819588428        1.6283760294       -0.7805887857
 C          4.0471103253       -0.5174929860        0.1796563793
 C          1.7438617165       -0.3683023398       -0.8064352939
 Cl         1.1727039942       -1.8519052726        0.0001801089
 H          1.9701076293       -0.1137288867        1.9448225571
 H          1.3822099555        1.4045689414        1.2560660532
 H          3.0064153199        1.3124954816        1.9384168547
 H          3.5708038915        1.3719651421       -1.7636567915
 H          3.9443641353        2.1889249398       -0.2459145569
 H          2.3116513648        2.2677177661       -0.9089115149
 H          4.8126256010        0.0121369017        0.7413081583
 H          4.4604720454       -0.7942507584       -0.7882767684
 H          3.7946529209       -1.4270387160        0.7197005616
 H          2.1369156294       -0.6822322733       -1.7739670301
 H          0.8679747654        0.2628518359       -0.9534574236
 C         -4.0433263423        0.5222423038       -0.2000778444
 C         -2.8124670308       -0.3662262541       -0.0127194618
 C         -3.1958891151       -1.6261648976        0.7699917600
 C         -2.2421133393       -0.7676462913       -1.3737639348
 C         -1.7515493454        0.3659155886        0.8115917539
 Cl        -1.1702220067        1.8500425463        0.0133911743
 H         -4.8050051645       -0.0059420666       -0.7682716249
 H         -3.7824668536        1.4298504594       -0.7393822836
 H         -4.4653424986        0.8023126380        0.7631523706
 H         -2.3289397171       -2.2677976428        0.9091512162
 H         -3.9532332893       -2.1849038116        0.2262948369
 H         -3.5959936196       -1.3682985873        1.7481512182
 H         -1.9468049484        0.1116882613       -1.9413132069
 H         -2.9896546479       -1.3097414659       -1.9475387438
 H         -1.3738481918       -1.4097301753       -1.2466992696
 H         -0.8780996511       -0.2669015795        0.9661414045
 H         -2.1535770151        0.6787433853        1.7757955994


