  21
        -24.05677616
 C         -1.4670420385       -0.3708849348       -1.3693264834
 C         -0.8739446957        0.3265058805       -0.1487264890
 O         -1.6228384362       -0.1310078839        0.9605943025
 C          0.6502511231        0.0945757087        0.0461503954
 C          0.9509228352       -1.3955604897        0.2200397195
 C          1.4230930195        0.6508642044       -1.1516303032
 C          1.1085205327        0.8439286738        1.3065279227
 H         -1.3291718315       -1.4444282035       -1.2926561435
 H         -1.0188992825       -0.0050516133       -2.2868773682
 H         -2.5347439639       -0.1690800375       -1.3945996193
 H         -1.0289978509        1.4144341365       -0.2657414371
 H         -1.3276328435        0.3371681846        1.7479103815
 H          0.8463632163       -1.9266541388       -0.7220844542
 H          0.2647134832       -1.8321805811        0.9423174770
 H          1.9690837361       -1.5343504922        0.5767359110
 H          1.1792469894        1.6989893191       -1.3133327907
 H          1.1960613593        0.0984671083       -2.0588210646
 H          2.4928718396        0.5723118849       -0.9703229030
 H          0.7130922185        0.3809590863        2.2090021126
 H          0.7925741539        1.8858946952        1.2753757315
 H          2.1937353845        0.8224146925        1.3770022833
