  21
        -24.05712621
 C         -1.8109619541        0.2793820456        0.9098989632
 C         -0.8651504165       -0.3566688878       -0.1095274027
 O         -1.1735203459        0.0978843569       -1.4158657535
 C          0.6362834903       -0.0740608010        0.1418912707
 C          1.4362973751       -0.8152292992       -0.9347321922
 C          0.9279894621        1.4238126881        0.0377670559
 C          1.0590631874       -0.5933665457        1.5176864044
 H         -2.8397179545        0.0089739190        0.6714254997
 H         -1.7275844583        1.3623421022        0.8816792051
 H         -1.5948200718       -0.0722948796        1.9133822789
 H         -1.0059951129       -1.4522340882       -0.0695503157
 H         -2.1220472620        0.0076421266       -1.5521444055
 H          2.4993336642       -0.6169946343       -0.8204898263
 H          1.1210142790       -0.4864217742       -1.9204516123
 H          1.2747005330       -1.8885560700       -0.8591712772
 H          2.0011312274        1.5961561496        0.0699760204
 H          0.4722635254        1.9711071267        0.8590778144
 H          0.5403198659        1.8081359482       -0.9014794108
 H          2.1404722300       -0.5299416877        1.6141594477
 H          0.7654859852       -1.6333987246        1.6451694391
 H          0.6166767642       -0.0060800937        2.3180059094
