%nprocshared=4
%mem=8000mb
%chk=10.chk
%nprocshared=4
%mem=8000mb
#T wB97XD/def2svpp opt=tight freq int(grid=ultrafine) scf=(verytight,qc) Volume=tight

Monomer

0 1
C        1.781406    1.038756   -0.019436
C        0.848844   -0.086972   -0.462274
O        1.395494   -1.341556   -0.106279
C       -0.630738    0.046955    0.002025
C       -1.202195    1.401689   -0.438533
C       -1.437396   -1.079179   -0.661182
C       -0.746142   -0.086077    1.527535
H        1.829340    1.118562    1.082256
H        1.470321    2.018384   -0.416368
H        2.798733    0.827579   -0.388377
H        0.834363   -0.099389   -1.566619
H        1.596319   -1.330296    0.839517
H       -0.752581    2.243517    0.115981
H       -2.291932    1.434640   -0.261453
H       -1.034388    1.574333   -1.517618
H       -1.436063   -0.969921   -1.760853
H       -2.488404   -1.063519   -0.321142
H       -1.003321   -2.062902   -0.419961
H       -0.182184    0.701130    2.058896
H       -0.385489   -1.070421    1.875713
H       -1.801347   -0.000284    1.841453


