  34
        -57.92470634
 C          4.0757028506       -0.3810064884       -0.2638943539
 C          3.0304005913        0.7294973070       -0.1278739919
 C          2.2992005407        0.6288338169        1.2141532633
 Cl         1.5151260691       -0.9480217591        1.4249857875
 C          3.7039718308        2.1059826471       -0.2111773155
 Cl         4.9068526867        2.3452196050        1.0789107084
 C          2.0432328208        0.5962107404       -1.2922546394
 Cl         0.8110324936        1.8827721276       -1.2903567950
 H          4.7963589830       -0.3155158133        0.5470351272
 H          4.6074099379       -0.2871170607       -1.2074416466
 H          3.6003589580       -1.3575793865       -0.2306604169
 H          1.5153891166        1.3838591187        1.2830088996
 H          3.0006446967        0.7425821190        2.0400909753
 H          2.9712134359        2.9062732366       -0.1095754378
 H          4.2343317430        2.2106382123       -1.1577555940
 H          1.5043972958       -0.3496834485       -1.2337962231
 H          2.5623280314        0.6645168382       -2.2477823969
 C         -3.2881114738       -1.6292823027        1.5926179644
 C         -2.5967451107       -1.1143105375        0.3275955733
 C         -3.6250795447       -0.8104075017       -0.7662902016
 Cl        -4.5519807087       -2.2577373861       -1.2287452450
 C         -1.8114339646        0.1657880423        0.6373307521
 Cl        -2.8643969695        1.4791186592        1.2122718450
 C         -1.6097250855       -2.1893986436       -0.1388483860
 Cl        -0.7269484556       -1.7116833289       -1.6036921818
 H         -3.9584452617       -0.8686223288        1.9836660334
 H         -2.5513749634       -1.8685163304        2.3555141606
 H         -3.8664247978       -2.5221066321        1.3719952120
 H         -3.1335804143       -0.4485250135       -1.6699779040
 H         -4.3452768725       -0.0720965782       -0.4163150387
 H         -1.3027536478        0.5405158262       -0.2505705946
 H         -1.0852548079       -0.0247364095        1.4271119328
 H         -2.1424217636       -3.1082178159       -0.3836535648
 H         -0.8587335873       -2.3830280172        0.6266771029
