  34
        -57.92471794
 C          3.4623431076        0.2474040410       -1.9386438751
 C          2.7824167815        0.0741076489       -0.5780286132
 C          3.7645273196        0.3688572723        0.5599925374
 Cl         5.1645900982       -0.7297352519        0.5319687699
 C          1.5867317735        1.0267397349       -0.4585496235
 Cl         2.0730270794        2.7342024957       -0.5714581042
 C          2.2675761144       -1.3663086558       -0.4912357439
 Cl         1.4376495896       -1.7000137140        1.0432244241
 H          2.7686691284        0.0088412860       -2.7410633146
 H          4.3264262557       -0.4064566535       -2.0167268468
 H          3.7923921968        1.2756900210       -2.0590857119
 H          3.2828725195        0.2412176898        1.5299984794
 H          4.1554373386        1.3816274289        0.4718206350
 H          1.0828955899        0.9092588825        0.5005259732
 H          0.8830838630        0.8450554050       -1.2704544677
 H          3.0997070030       -2.0674873874       -0.5524167220
 H          1.5474480686       -1.5677095505       -1.2838621385
 C         -3.6041498809       -1.9304944889        0.0031170957
 C         -3.0726188737       -0.5173102401        0.2576428244
 C         -2.4946306641        0.0870747307       -1.0255029255
 Cl        -1.1962166164       -0.9127620275       -1.7025267879
 C         -4.2027063789        0.3934556358        0.7564298456
 Cl        -5.5260662543        0.5325745502       -0.4258302421
 C         -1.9978371251       -0.6037443946        1.3464235736
 Cl        -1.3383673765        0.9935181970        1.7794106284
 H         -4.3782805298       -1.9054452501       -0.7593117825
 H         -4.0288970270       -2.3452262366        0.9137451173
 H         -2.8036281161       -2.5836008775       -0.3333761948
 H         -2.0668332811        1.0706951046       -0.8289682028
 H         -3.2647805519        0.1614697129       -1.7926544144
 H         -3.8377217516        1.4038354156        0.9399828877
 H         -4.6393120124       -0.0116103094        1.6694220208
 H         -1.1546534874       -1.2065304801        1.0085557306
 H         -2.4092678589       -1.0287636015        2.2614613721
