  34
        -57.92417344
 C          4.0202283313        0.1256144715        0.1660493369
 C          2.8126673377        0.4921910132       -0.7014214324
 C          1.7805818216        1.2837706359        0.1071034120
 Cl         1.2166114637        0.3785988858        1.5298404192
 C          3.2561973215        1.3494012355       -1.8946062873
 Cl         4.0395218071        2.8616197879       -1.3793908461
 C          2.1990662832       -0.8082249949       -1.2326614340
 Cl         0.8495398013       -0.5161433606       -2.3594228626
 H          4.4874203904        1.0274918238        0.5522439966
 H          4.7559708125       -0.4219569361       -0.4177555490
 H          3.7119039501       -0.4924682486        1.0046848723
 H          0.8990333209        1.5023045530       -0.4963914950
 H          2.2173471835        2.2099441020        0.4787112596
 H          2.4027322788        1.6334942833       -2.5098745870
 H          3.9842353881        0.8092683674       -2.5001740798
 H          1.8001586361       -1.3998924259       -0.4092034487
 H          2.9407075268       -1.3900480960       -1.7793084948
 C         -3.9448858538       -0.7074166074       -0.4783819890
 C         -2.8406171829       -0.5917144015        0.5759035057
 C         -1.6241598826       -1.4339541167        0.1811826601
 Cl        -2.0335448336       -3.1568668775        0.0107456593
 C         -2.3965302660        0.8686428141        0.7277557074
 Cl        -1.7746557590        1.5407742505       -0.7948131573
 C         -3.4100801554       -1.0669278011        1.9173479128
 Cl        -2.2384015066       -0.9037932315        3.2523918916
 H         -3.5784472358       -0.3602109351       -1.4409529558
 H         -4.8063240770       -0.1065215974       -0.1967760480
 H         -4.2598116592       -1.7418799358       -0.5826171296
 H         -0.8499032954       -1.3671487806        0.9457245792
 H         -1.2300056407       -1.1080563504       -0.7805573944
 H         -1.5955481987        0.9569200343        1.4610099861
 H         -3.2395325186        1.4938750324        1.0229174119
 H         -3.6732299446       -2.1226225296        1.8581772349
 H         -4.2864146335       -0.4820924447        2.1956558951
