  18
        -20.07621910
 C         -1.9335867764        0.4380988374       -1.0990362890
 C         -1.4058592973       -0.2298955762        0.1652524420
 C          0.1080312342       -0.4639338379        0.1809038228
 C          0.5080413245       -1.1594882595        1.4779731282
 C          0.5872314147       -1.2584270829       -1.0268475250
 S          0.9157494499        1.2097968636        0.1531928129
 H         -1.8263579077       -0.2123723619       -1.9631770111
 H         -1.3993115584        1.3658123964       -1.2900960257
 H         -2.9890639896        0.6704050324       -0.9782607695
 H         -1.8997889847       -1.1965380599        0.2972789106
 H         -1.6607837038        0.3929698091        1.0263150023
 H          0.2032302073       -0.5676758210        2.3383744158
 H          1.5859382595       -1.3050478858        1.5250854268
 H          0.0277180389       -2.1347801927        1.5402842682
 H          0.4530606161       -0.6901953827       -1.9433090340
 H          0.0263448344       -2.1884528257       -1.1049061862
 H          1.6439443696       -1.5019804642       -0.9286408102
 H          2.1623596308        0.7472323670        0.2041501046
