%chk=45.chk
%nprocshared=4
%mem=8000mb
#T wB97XD/def2svpp opt=tight freq int(grid=ultrafine) scf=(verytight,qc)

Comment gs min

1 2
O       -2.129706    0.295744    1.266840
C       -0.785026    0.095438    1.515786
C        0.016371    0.007179    0.209285
N       -0.387570    1.143448   -0.713301
O       -0.827560    0.844715   -1.790614
O       -0.238097    2.238226   -0.245207
N        1.509379    0.084638    0.453756
O        2.165593    0.767887   -0.279884
O        1.889521   -0.592891    1.377226
N       -0.222507   -1.302978   -0.525653
O        0.664137   -1.705691   -1.223322
O       -1.301581   -1.815501   -0.342386
H       -2.496088   -0.513029    0.875724
H       -0.559291   -0.810431    2.106241
H       -0.406255    0.972087    2.062773


