  10
        -36.86690393
 Br         1.7690010221       -1.6702971872        0.7545206765
 C          2.4092583924       -0.0000569871        0.0050627288
 Br         4.1531635497       -0.2769165161       -0.7940397456
 Br         1.1795051332        0.6077427584       -1.3575474578
 Br         2.5325344354        1.3393471679        1.4066299996
 Br        -4.1530692677       -0.3026252467        0.7848513084
 C         -2.4092668391        0.0001215633       -0.0050576814
 Br        -1.7689823758       -1.6449705265       -0.8081928724
 Br        -2.5329295401        1.3842297228       -1.3624569220
 Br        -1.1792216871        0.5634801203        1.3762342546
