%chk=2.chk
%nprocshared=4
%mem=8000mb
#T wB97XD/def2svpp opt=tight freq int(grid=ultrafine) scf=(verytight,qc) Volume=tight

Monomer

0 1
C       -1.219316    2.252791   -0.276027 
C       -0.812933    0.932050   -0.932505 
C        0.213394    0.057152   -0.181518 
C       -0.165049   -0.118696    1.299535 
O       -1.431527   -0.713295    1.506612 
C        0.279750   -1.328735   -0.862514 
O       -0.948981   -2.002855   -0.897540 
C        1.606203    0.711593   -0.257921 
O        2.626842   -0.012693    0.386097 
H       -1.902429    2.811473   -0.937660 
H       -0.354837    2.906875   -0.069991 
H       -1.751491    2.103967    0.681256 
H       -0.403967    1.141627   -1.938463 
H       -1.710728    0.316615   -1.115132 
H       -0.100292    0.853486    1.831385 
H        0.552741   -0.803458    1.779645 
H       -2.119797   -0.110644    1.191983 
H        1.062794   -1.929554   -0.357838 
H        0.598221   -1.198656   -1.912193 
H       -1.311483   -1.987852    0.004243 
H        1.557448    1.749181    0.130242 
H        1.903439    0.781258   -1.318364 
H        2.597417    0.159496    1.335234 


