%chk=46.chk
%nprocshared=4
%mem=8000mb
#T wB97XD/def2svpp opt=(calcall,tight) int(grid=ultrafine) scf=(verytight,qc)

Comment gs min

0 1
C       -1.282869   -0.798399   -1.217224
C       -0.827779    0.000008    0.000030
C       -1.282574    1.453592   -0.082616
C       -1.282625   -0.655187    1.300057
Br        1.164070   -0.000011   -0.000051
H       -2.388312   -0.817359   -1.245897
H       -0.920510   -1.838544   -1.172225
H       -0.921090   -0.343220   -2.153900
H       -2.388075    1.488493   -0.084685
H       -0.920481    1.935202   -1.005910
H       -0.920400    2.036277    0.780215
H       -2.388041   -0.670121    1.330880
H       -0.919908   -0.096514    2.178400
H       -0.920556   -1.693921    1.373441



