  13
        -18.61878623
 C         -1.3112978882        0.8792821285        0.1498611248
 C         -0.3870516332       -0.3258297235        0.2905138487
 O         -0.9709861466       -1.5066749547       -0.2103754842
 C          0.9626796783       -0.0597879043       -0.3961982853
 O          1.6000299545        1.0104264960        0.2618898147
 H         -1.5309573716        1.0662652077       -0.9010297913
 H         -0.8240091931        1.7544127403        0.5680301803
 H         -2.2441303061        0.6990552158        0.6775803170
 H         -0.1962733871       -0.5240180819        1.3495885596
 H         -1.2578294445       -1.3461668501       -1.1173304188
 H          0.7920377239        0.1830914666       -1.4576986365
 H          1.5681904887       -0.9750290951       -0.3434821443
 H          2.4744051504        1.1369059864       -0.1198435799
