  13
        -18.61569850
 C         -1.7750036844        0.7206488180       -0.0312280398
 C         -0.4874352536       -0.0241569306        0.3215705121
 O         -0.5164079208       -1.3572582046       -0.1372015036
 C          0.7291838221        0.6597759375       -0.3162811329
 O          1.9589227815        0.1369682177        0.1057375037
 H         -1.7327552581        1.7451912412        0.3274369941
 H         -2.6330225419        0.2295391905        0.4252492861
 H         -1.9113967407        0.7289498962       -1.1098575445
 H         -0.3565189794       -0.0160509771        1.4210187296
 H         -1.3216225014       -1.7823912338        0.1768913702
 H          0.6752318491        1.7386428294       -0.1017518615
 H          0.6979324872        0.5073845913       -1.3965727757
 H          1.9552590717        0.0571626519        1.0661524968
