  13
        -18.61891016
 C         -1.8100177237        0.6635173632       -0.0269423458
 C         -0.4907175542        0.0000855648        0.3433953418
 O         -0.5220766181       -1.3349570448       -0.1037435372
 C          0.7020683748        0.7352262437       -0.2816532306
 O          1.8747254222        0.0472630360        0.1098827275
 H         -2.6286488182        0.0976502485        0.4072894839
 H         -1.9295774763        0.6676343961       -1.1071002023
 H         -1.8405083266        1.6836958616        0.3446459493
 H         -0.3582487308        0.0172711313        1.4382010668
 H          0.3741810259       -1.6823861899       -0.0160986768
 H          0.7217758710        1.7751509907        0.0686907791
 H          0.5989932402        0.7274858483       -1.3753609734
 H          2.6411768776        0.4846995625       -0.2724247281
