  13
        -18.62244009
 C         -1.7952989157        0.7096439116       -0.0216893688
 C         -0.4925624773        0.0060459260        0.3408435377
 O         -0.4796689974       -1.3432388877       -0.0873076785
 C          0.7281379144        0.7311721559       -0.2473021455
 O          1.9190771600        0.0756446465        0.1000902679
 H         -2.6404959447        0.1477864329        0.3681353151
 H         -1.8953908787        0.7875538012       -1.1036825150
 H         -1.8122486468        1.7096112433        0.4013609389
 H         -0.3806846281       -0.0508187793        1.4287659165
 H         -0.6893542690       -1.3668177419       -1.0291185000
 H          0.7953666605        1.7500150678        0.1388576620
 H          0.6256578326        0.7768209847       -1.3452473733
 H          1.7349926604       -0.8744130399        0.0817675158
