  13
        -18.61845682
 C         -1.3581439726        0.8472994858        0.0982591433
 C         -0.3877823738       -0.3106534294        0.3097847706
 O         -0.9955701991       -1.4677299866       -0.2259468918
 C          0.9686517333       -0.0522146545       -0.3749997411
 O          1.6941085588        0.9964106411        0.2129843773
 H         -1.4832375607        1.0358822585       -0.9653282772
 H         -1.0004140134        1.7469703845        0.5926678847
 H         -2.3252460427        0.5808965559        0.5146709497
 H         -0.2092541498       -0.4415292887        1.3901131887
 H         -0.4061316372       -2.2201929471       -0.1093749258
 H          0.7996636824        0.1310059534       -1.4459239417
 H          1.6034247640       -0.9383213586       -0.2741225805
 H          1.1952705069        1.8141099221        0.1092819216
