  13
        -18.62101088
 C         -1.7902087482        0.7181901465       -0.0306522155
 C         -0.4901918771        0.0160110904        0.3474297490
 O         -0.4608399109       -1.3247169504       -0.1169284741
 C          0.7265668566        0.7042748441       -0.2839559575
 O          1.9253898918        0.0885247041        0.1005198415
 H         -1.7704937940        1.7498818558        0.3080407114
 H         -2.6412431766        0.2180142228        0.4289191359
 H         -1.9183911179        0.7035239600       -1.1106475939
 H         -0.3673613543        0.0232687911        1.4427878330
 H         -1.2505640031       -1.7793517682        0.1924775512
 H          0.7862930987        1.7424796695        0.0476358870
 H          0.6123186960        0.6805673395       -1.3774182820
 H          1.8179964997       -0.8571875073       -0.0624547045
