  13
        -18.61767264
 C         -1.3231050862        0.8887660928        0.1207114561
 C         -0.3879321497       -0.3021971064        0.3050259587
 O         -0.9273430834       -1.4925260698       -0.2347263730
 C          0.9472021124       -0.0686437605       -0.4047667117
 O          1.6191876218        0.9913137328        0.2370965466
 H         -2.2345824841        0.7555143717        0.7009092440
 H         -1.5850686488        0.9944808156       -0.9300059746
 H         -0.8196126134        1.7905363773        0.4553991607
 H         -0.1783793756       -0.4357489565        1.3784783312
 H         -1.8181552953       -1.6064259763        0.1143586120
 H          0.7546073225        0.1649384179       -1.4605364167
 H          1.5295769882       -0.9977128797       -0.3555359411
 H          2.4717908708        1.1186194145       -0.1905960083
