  13
        -18.62041586
 C         -1.8128815129        0.6721234949       -0.0676452194
 C         -0.5058900629        0.0047898812        0.3400242468
 O         -0.5102469501       -1.3324706622       -0.1059696659
 C          0.7106024900        0.7389865873       -0.2433259569
 O          1.9049607667        0.0498862223        0.0536359460
 H         -2.6472276692        0.1069723904        0.3369517835
 H         -1.8974533254        0.6840407663       -1.1508509329
 H         -1.8516070181        1.6904451325        0.3089509779
 H         -0.4206873348        0.0132070800        1.4439095536
 H          0.4101749690       -1.5918467637       -0.2521402960
 H          0.7439990196        1.7724435599        0.1235538610
 H          0.6436115701        0.7501820745       -1.3337160422
 H          2.0438297855        0.0612181527        1.0078650438
