  13
        -18.61979673
 C         -1.3436884815        0.8663454650        0.1249409194
 C         -0.3947957319       -0.3219324442        0.2991765660
 O         -0.9600292351       -1.5094621527       -0.2077428045
 C          0.9712436189       -0.0588798477       -0.3651914746
 O          1.6952671021        0.9846944949        0.2315537121
 H         -1.4412484671        1.1266877367       -0.9292457283
 H         -0.9839806062        1.7330165016        0.6739443147
 H         -2.3260063823        0.6034940356        0.5094606561
 H         -0.2372233166       -0.5149865588        1.3652751786
 H         -1.1409898299       -1.3899673305       -1.1476309324
 H          0.8181794055        0.1359926877       -1.4398567045
 H          1.5922666743       -0.9517606039       -0.2624071837
 H          1.1909362971        1.8016536257        0.1502733248
