  13
        -18.62244009
 C         -1.7952989157        0.7096439116       -0.0216893688
 C         -0.4925624773        0.0060459260        0.3408435377
 O         -0.4796689974       -1.3432388877       -0.0873076785
 C          0.7281379144        0.7311721559       -0.2473021455
 O          1.9190771600        0.0756446465        0.1000902679
 H         -2.6404959447        0.1477864329        0.3681353151
 H         -1.8953908787        0.7875538012       -1.1036825150
 H         -1.8122486468        1.7096112433        0.4013609389
 H         -0.3806846281       -0.0508187793        1.4287659165
 H         -0.6893542690       -1.3668177419       -1.0291185000
 H          0.7953666605        1.7500150678        0.1388576620
 H          0.6256578326        0.7768209847       -1.3452473733
 H          1.7349926604       -0.8744130399        0.0817675158
  13
        -18.62111767
 C         -1.3282427807        0.8840080756        0.1163734679
 C         -0.4013488379       -0.3174209355        0.2818111912
 O         -0.9706620920       -1.5053504562       -0.2200593382
 C          0.9641215605       -0.0487437517       -0.3819858612
 O          1.6648314118        1.0087536132        0.2220075868
 H         -2.2573079822        0.7229505774        0.6569201079
 H         -1.5565381036        1.0375000424       -0.9374740630
 H         -0.8404710133        1.7768282653        0.4973286339
 H         -0.2411875637       -0.5164751749        1.3491694696
 H         -1.2120706606       -1.3642735911       -1.1429456189
 H          0.8184718846        0.2511862988       -1.4238971024
 H          1.5537107503       -0.9767390584       -0.3652791010
 H          1.8381491646        0.7809331392        1.1422124293
  13
        -18.62101088
 C         -1.7902087482        0.7181901465       -0.0306522155
 C         -0.4901918771        0.0160110904        0.3474297490
 O         -0.4608399109       -1.3247169504       -0.1169284741
 C          0.7265668566        0.7042748441       -0.2839559575
 O          1.9253898918        0.0885247041        0.1005198415
 H         -1.7704937940        1.7498818558        0.3080407114
 H         -2.6412431766        0.2180142228        0.4289191359
 H         -1.9183911179        0.7035239600       -1.1106475939
 H         -0.3673613543        0.0232687911        1.4427878330
 H         -1.2505640031       -1.7793517682        0.1924775512
 H          0.7862930987        1.7424796695        0.0476358870
 H          0.6123186960        0.6805673395       -1.3774182820
 H          1.8179964997       -0.8571875073       -0.0624547045
  13
        -18.62073612
 C         -1.4052037401        0.7859694509       -0.4517215154
 C         -0.5784997532       -0.0632733336        0.5096393387
 O         -0.4649589411       -1.4036160002        0.0586003863
 C          0.8615191664        0.4612557125        0.6187356425
 O          1.5307024640        0.3847544951       -0.6098642049
 H         -1.5213951972        1.7894570831       -0.0527323311
 H         -2.3931216793        0.3513955906       -0.5972741867
 H         -0.8987992193        0.8472036026       -1.4123281209
 H         -1.0367604546       -0.0471578025        1.5117298944
 H         -1.3453319235       -1.7460500111       -0.1257384187
 H          1.3907060360       -0.1258388218        1.3829908438
 H          0.8582161666        1.5114571084        0.9154255154
 H          1.4017884147       -0.5160483190       -0.9348963310
  13
        -18.62064922
 C         -1.4310016299        0.7568438700       -0.4395599652
 C         -0.5771745117       -0.0995983351        0.5033370011
 O         -0.5303054513       -1.4392125048        0.0744724070
 C          0.8542691359        0.4537251137        0.6295258801
 O          1.5491711879        0.3792123557       -0.5947383097
 H         -1.0305215574        0.7336604906       -1.4522042070
 H         -1.4679996913        1.7854251558       -0.0893488432
 H         -2.4413685894        0.3589687573       -0.4719499945
 H         -1.0389306687       -0.1139424711        1.4965426947
 H          0.1472955376       -1.4955394077       -0.6136098758
 H          1.4203209057       -0.1710018895        1.3242201943
 H          0.8308701547        1.4811177289        1.0139282238
 H          1.1578084384        1.0084710016       -1.2108712188
  13
        -18.62041586
 C         -1.8128815129        0.6721234949       -0.0676452194
 C         -0.5058900629        0.0047898812        0.3400242468
 O         -0.5102469501       -1.3324706622       -0.1059696659
 C          0.7106024900        0.7389865873       -0.2433259569
 O          1.9049607667        0.0498862223        0.0536359460
 H         -2.6472276692        0.1069723904        0.3369517835
 H         -1.8974533254        0.6840407663       -1.1508509329
 H         -1.8516070181        1.6904451325        0.3089509779
 H         -0.4206873348        0.0132070800        1.4439095536
 H          0.4101749690       -1.5918467637       -0.2521402960
 H          0.7439990196        1.7724435599        0.1235538610
 H          0.6436115701        0.7501820745       -1.3337160422
 H          2.0438297855        0.0612181527        1.0078650438
  13
        -18.62010830
 C         -1.7992652801        0.6958590160       -0.0918590567
 C         -0.5130350477       -0.0044356866        0.3479107493
 O         -0.4746863822       -1.3493504927       -0.0679472327
 C          0.7213060491        0.7643379204       -0.1552666582
 O          1.9135953807        0.0391259593        0.0038373903
 H         -2.6609603832        0.1434421320        0.2732997178
 H         -1.8514697657        0.7436614625       -1.1780222878
 H         -1.8321296553        1.7065035017        0.3048341559
 H         -0.4824133335       -0.0584906004        1.4437280297
 H         -0.3646384471       -1.3738464273       -1.0257926541
 H          0.7787712106        1.7321317671        0.3655251727
 H          0.6327029309        0.9554185348       -1.2295066142
 H          1.8985536057       -0.3984205016        0.8625729998
  13
        -18.62004290
 C         -1.4524183847        0.7633837995       -0.4384033412
 C         -0.5838111973       -0.0689084865        0.4998995136
 O         -0.5124503220       -1.4160782973        0.0741073453
 C          0.8373587029        0.5278451552        0.6049420766
 O          1.5700782177        0.3436854137       -0.5835260788
 H         -1.6382014033        1.7435291605       -0.0092297628
 H         -2.4051749303        0.2663006134       -0.6059462222
 H         -0.9426569605        0.8922081681       -1.3922127546
 H         -1.0253146726       -0.1043216484        1.5007715447
 H         -0.3518962948       -1.4138329747       -0.8777744351
 H          1.3636138379        0.0713224848        1.4531077792
 H          0.7754126798        1.6051223348        0.7648572095
 H          1.7222099805       -0.6033864194       -0.6889119074
  13
        -18.61998525
 C         -1.4069392128        0.7615766663       -0.4577774969
 C         -0.5815440711       -0.0995958187        0.4990975986
 O         -0.5259231086       -1.4382504188        0.0743578055
 C          0.8411645423        0.4639518561        0.6439307741
 O          1.4695603770        0.3787748113       -0.6210363315
 H         -2.3768519122        0.2992163495       -0.6199220058
 H         -0.8898759160        0.8456748179       -1.4107637138
 H         -1.5513143111        1.7552717708       -0.0429846708
 H         -1.0543392596       -0.1225187038        1.4869876844
 H          0.0092991171       -1.4511836541       -0.7298981999
 H          1.3907569849       -0.1329498984        1.3840150874
 H          0.7940237900        1.5046656936        0.9898056255
 H          2.3714409985        0.7023557512       -0.5453039600
  13
        -18.61979673
 C         -1.3436884815        0.8663454650        0.1249409194
 C         -0.3947957319       -0.3219324442        0.2991765660
 O         -0.9600292351       -1.5094621527       -0.2077428045
 C          0.9712436189       -0.0588798477       -0.3651914746
 O          1.6952671021        0.9846944949        0.2315537121
 H         -1.4412484671        1.1266877367       -0.9292457283
 H         -0.9839806062        1.7330165016        0.6739443147
 H         -2.3260063823        0.6034940356        0.5094606561
 H         -0.2372233166       -0.5149865588        1.3652751786
 H         -1.1409898299       -1.3899673305       -1.1476309324
 H          0.8181794055        0.1359926877       -1.4398567045
 H          1.5922666743       -0.9517606039       -0.2624071837
 H          1.1909362971        1.8016536257        0.1502733248
  13
        -18.61964293
 C         -1.4203217745        0.7444111970       -0.4711974589
 C         -0.5745012928       -0.0500656900        0.5155153838
 O         -0.5145691861       -1.3886274197        0.0488356658
 C          0.8560156016        0.5095862701        0.6042086073
 O          1.5271559507        0.3627265379       -0.6186416693
 H         -2.3684872883        0.2384614968       -0.6284551519
 H         -0.9008202972        0.8195938702       -1.4228437751
 H         -1.6024436548        1.7424656116       -0.0842672917
 H         -1.0369819326       -0.0183016416        1.5138945179
 H         -0.0546545024       -1.9300918226        0.6998877074
 H          1.4045805494       -0.0199295575        1.4023952827
 H          0.8386738923        1.5744171315        0.8441984186
 H          1.2173410802       -0.4685517949       -1.0081096451
  13
        -18.61938109
 C         -1.3384917783        0.8924929023        0.0884553494
 C         -0.4029724498       -0.2948381574        0.2955150174
 O         -0.9252626409       -1.4909679494       -0.2436685007
 C          0.9500557207       -0.0560201430       -0.3916710499
 O          1.6812342045        0.9876742477        0.1981893265
 H         -2.2457788984        0.7814850931        0.6802960587
 H         -1.6078341753        0.9667867349       -0.9627499418
 H         -0.8327465765        1.8072024238        0.3851815313
 H         -0.2232859732       -0.4285212009        1.3794279734
 H         -1.8431571176       -1.5801282114        0.0359305185
 H          0.7829491580        0.2379773082       -1.4293833447
 H          1.5138143703       -0.9979725285       -0.3837555393
 H          1.8868519407        0.7478703000        1.1087568854
  13
        -18.61891016
 C         -1.8100177237        0.6635173632       -0.0269423458
 C         -0.4907175542        0.0000855648        0.3433953418
 O         -0.5220766181       -1.3349570448       -0.1037435372
 C          0.7020683748        0.7352262437       -0.2816532306
 O          1.8747254222        0.0472630360        0.1098827275
 H         -2.6286488182        0.0976502485        0.4072894839
 H         -1.9295774763        0.6676343961       -1.1071002023
 H         -1.8405083266        1.6836958616        0.3446459493
 H         -0.3582487308        0.0172711313        1.4382010668
 H          0.3741810259       -1.6823861899       -0.0160986768
 H          0.7217758710        1.7751509907        0.0686907791
 H          0.5989932402        0.7274858483       -1.3753609734
 H          2.6411768776        0.4846995625       -0.2724247281
  13
        -18.61878623
 C         -1.3112978882        0.8792821285        0.1498611248
 C         -0.3870516332       -0.3258297235        0.2905138487
 O         -0.9709861466       -1.5066749547       -0.2103754842
 C          0.9626796783       -0.0597879043       -0.3961982853
 O          1.6000299545        1.0104264960        0.2618898147
 H         -1.5309573716        1.0662652077       -0.9010297913
 H         -0.8240091931        1.7544127403        0.5680301803
 H         -2.2441303061        0.6990552158        0.6775803170
 H         -0.1962733871       -0.5240180819        1.3495885596
 H         -1.2578294445       -1.3461668501       -1.1173304188
 H          0.7920377239        0.1830914666       -1.4576986365
 H          1.5681904887       -0.9750290951       -0.3434821443
 H          2.4744051504        1.1369059864       -0.1198435799
  13
        -18.61845682
 C         -1.3581439726        0.8472994858        0.0982591433
 C         -0.3877823738       -0.3106534294        0.3097847706
 O         -0.9955701991       -1.4677299866       -0.2259468918
 C          0.9686517333       -0.0522146545       -0.3749997411
 O          1.6941085588        0.9964106411        0.2129843773
 H         -1.4832375607        1.0358822585       -0.9653282772
 H         -1.0004140134        1.7469703845        0.5926678847
 H         -2.3252460427        0.5808965559        0.5146709497
 H         -0.2092541498       -0.4415292887        1.3901131887
 H         -0.4061316372       -2.2201929471       -0.1093749258
 H          0.7996636824        0.1310059534       -1.4459239417
 H          1.6034247640       -0.9383213586       -0.2741225805
 H          1.1952705069        1.8141099221        0.1092819216
  13
        -18.61817420
 C         -1.3370979101        0.8659555082        0.0824836146
 C         -0.3941967716       -0.3108705780        0.2961347569
 O         -1.0098912874       -1.4634462725       -0.2358000762
 C          0.9669423002       -0.0524923988       -0.3761815281
 O          1.6566404600        1.0306570249        0.1913701770
 H         -0.8467606250        1.7877722177        0.3821164161
 H         -2.2449358612        0.7283034735        0.6622569322
 H         -1.6010892852        0.9245158566       -0.9696572021
 H         -0.2213142314       -0.4483953370        1.3808398996
 H         -0.4104077915       -2.2137978619       -0.1605024027
 H          0.8150457390        0.2038567839       -1.4267961719
 H          1.5773015800       -0.9701851579       -0.3265413065
 H          1.7743449605        0.8687013254        1.1345243379
  13
        -18.61802083
 C         -1.8012971502        0.6776684216       -0.0829749566
 C         -0.5075293016        0.0166843584        0.3697267503
 O         -0.5167166832       -1.3251103329       -0.0866790473
 C          0.7185197328        0.7658264584       -0.1923936895
 O          1.9180115847        0.0608783921        0.0309562018
 H         -1.8796701392        0.6218901403       -1.1653507963
 H         -1.8195861105        1.7181929414        0.2272238327
 H         -2.6502179233        0.1570511963        0.3505473179
 H         -0.4501611268        0.0266848725        1.4686713174
 H          0.1976597595       -1.7998933827        0.3524763384
 H          0.8280119590        1.7244443232        0.3171097257
 H          0.5733458501        0.9463938786       -1.2652512738
 H          1.9079263481       -0.7270988449       -0.5253342849
  13
        -18.61767264
 C         -1.3231050862        0.8887660928        0.1207114561
 C         -0.3879321497       -0.3021971064        0.3050259587
 O         -0.9273430834       -1.4925260698       -0.2347263730
 C          0.9472021124       -0.0686437605       -0.4047667117
 O          1.6191876218        0.9913137328        0.2370965466
 H         -2.2345824841        0.7555143717        0.7009092440
 H         -1.5850686488        0.9944808156       -0.9300059746
 H         -0.8196126134        1.7905363773        0.4553991607
 H         -0.1783793756       -0.4357489565        1.3784783312
 H         -1.8181552953       -1.6064259763        0.1143586120
 H          0.7546073225        0.1649384179       -1.4605364167
 H          1.5295769882       -0.9977128797       -0.3555359411
 H          2.4717908708        1.1186194145       -0.1905960083
  13
        -18.61661406
 C         -1.3436711210        0.8564033004        0.1350753932
 C         -0.3789999354       -0.3103679328        0.2944326387
 O         -1.0013957058       -1.4647134953       -0.2286201619
 C          0.9465193743       -0.0273089926       -0.4300108898
 O          1.6213586829        0.9954529048        0.2648953391
 H         -2.2430712234        0.6733365334        0.7152115028
 H         -1.6190613282        0.9596612099       -0.9111630664
 H         -0.8647789437        1.7672974405        0.4801931637
 H         -0.1496166732       -0.4483592691        1.3625693385
 H         -0.4308439939       -2.2275628801       -0.0871760950
 H          0.7360835228        0.2668424860       -1.4671664527
 H          1.5544128033       -0.9469781055       -0.4487391517
 H          2.4248748438        1.2232151121       -0.2135687513
  13
        -18.61569850
 C         -1.7750036844        0.7206488180       -0.0312280398
 C         -0.4874352536       -0.0241569306        0.3215705121
 O         -0.5164079208       -1.3572582046       -0.1372015036
 C          0.7291838221        0.6597759375       -0.3162811329
 O          1.9589227815        0.1369682177        0.1057375037
 H         -1.7327552581        1.7451912412        0.3274369941
 H         -2.6330225419        0.2295391905        0.4252492861
 H         -1.9113967407        0.7289498962       -1.1098575445
 H         -0.3565189794       -0.0160509771        1.4210187296
 H         -1.3216225014       -1.7823912338        0.1768913702
 H          0.6752318491        1.7386428294       -0.1017518615
 H          0.6979324872        0.5073845913       -1.3965727757
 H          1.9552590717        0.0571626519        1.0661524968
  13
        -18.61551764
 C         -1.7712764201        0.7096538537        0.0369763051
 C         -0.4725535515       -0.0512744035        0.3154095551
 O         -0.5656525655       -1.3896838964       -0.1032237481
 C          0.7182986528        0.6718271365       -0.3312271809
 O          1.9137731262        0.1393345174        0.1847710950
 H         -1.9192674473        0.8277072349       -1.0357044412
 H         -1.7466543748        1.6927566854        0.4976116900
 H         -2.6100388491        0.1513249727        0.4439471304
 H         -0.2905094625       -0.1112105840        1.3924999841
 H         -0.6347772891       -1.4123551518       -1.0650378668
 H          0.6452469917        1.7467382525       -0.1103454349
 H          0.6710340991        0.5396163564       -1.4245257736
 H          2.6644450211        0.5615811204       -0.2450724531
  13
        -18.61487348
 C         -1.3628237166        0.7912110025       -0.4319758979
 C         -0.5612805017       -0.1257938663        0.4952491882
 O         -0.5737703024       -1.4614681259        0.0431891832
 C          0.9094871705        0.3132383452        0.6202697018
 O          1.5674632976        0.5277667882       -0.5966265725
 H         -1.0286455817        0.6680891893       -1.4608084888
 H         -1.2463187874        1.8302380204       -0.1322853890
 H         -2.4209803108        0.5388967957       -0.3870253138
 H         -0.9951429380       -0.0764910913        1.5100534536
 H         -1.4808942018       -1.7209335050       -0.1513342187
 H          1.4625223887       -0.4855704415        1.1172024203
 H          0.9459085523        1.2177722272        1.2472166732
 H          1.0807189048        1.1870723203       -1.1034405194
  13
        -18.61431609
 C         -1.7193390362        0.7541351721        0.0961354677
 C         -0.4471136754       -0.0715963273        0.2916492754
 O         -0.6226176537       -1.3939064244       -0.1769960736
 C          0.7410249502        0.5192761018       -0.4752429322
 O          1.9141366097        0.2992326715        0.2746094984
 H         -2.5492592081        0.2968609034        0.6319066101
 H         -1.9717719085        0.7986438728       -0.9608109381
 H         -1.5785750832        1.7629382382        0.4729372935
 H         -0.1720723407       -0.0835895958        1.3569652043
 H         -1.3045391329       -1.8241968514        0.3495671892
 H          0.5877937002        1.5968338959       -0.6307064478
 H          0.7929691040        0.0212832134       -1.4504931933
 H          2.6805074120        0.4862158240       -0.2766540592
  13
        -18.61366763
 C         -1.3149906600        0.8102060938       -0.4441540012
 C         -0.5661361428       -0.1282491000        0.4948940119
 O         -0.5834939231       -1.4658609024        0.0414074114
 C          0.9031420381        0.2876013980        0.6435351082
 O          1.4513127140        0.5722965569       -0.6225835583
 H         -2.3571133823        0.5069577121       -0.5340050375
 H         -0.8437680071        0.7883815604       -1.4229828679
 H         -1.2781878402        1.8258155829       -0.0606289424
 H         -1.0238177819       -0.0874647724        1.5001934184
 H         -1.4216817389       -1.6330258524       -0.4017616605
 H          1.4342452375       -0.5408955207        1.1265270440
 H          0.9594851856        1.1741922701        1.2931994784
 H          2.4095912247        0.5963868178       -0.5485311229
