  22
        -28.11528425
 C         -2.7331580651       -0.1696183779        0.6077853089
 C         -1.3568539397        0.1576620785        1.1783155679
 C         -0.2030558702        0.1728844297        0.1605878055
 C         -0.4899671914        1.1319201875       -0.9990582725
 C          1.0661003579        0.6554646137        0.9022720266
 O          2.1966866770        0.7670522185        0.0822110109
 C          0.0375582565       -1.2549547568       -0.3708547761
 O          1.1105463157       -1.3587830035       -1.2834285832
 H         -3.0193545854        0.5447668847       -0.1588177165
 H         -3.4733731826       -0.1244173778        1.4033693481
 H         -2.7617476783       -1.1691536728        0.1825763613
 H         -1.1180669196       -0.5648231137        1.9625981417
 H         -1.4034964223        1.1432129743        1.6476370984
 H         -0.9079826179        2.0604404675       -0.6180308188
 H         -1.1929739531        0.6993807158       -1.7082737847
 H          0.4359729771        1.3764887689       -1.5172308631
 H          1.2663415485       -0.0268214739        1.7432848554
 H          0.8931185841        1.6557052286        1.3095862928
 H          2.3100247954       -0.0860014257       -0.3663727201
 H         -0.8795810358       -1.6353725443       -0.8380337899
 H          0.2993758569       -1.9177987303        0.4584267786
 H          0.8993436064       -0.8251250226       -2.0581961373
