  22
        -28.11510049
 C         -2.1010334000       -0.4838537609        1.6033801777
 C         -1.7446023671        0.4023022914        0.4139620380
 C         -0.3152352146        0.2600449435       -0.1385035133
 C         -0.1215979019        1.3040353980       -1.2467496168
 C          0.7101230033        0.5002563771        0.9888114962
 O          2.0522668350        0.5176291456        0.5513484983
 C         -0.0964824152       -1.1452292759       -0.7386667577
 O          1.1505969768       -1.2934758129       -1.3647809793
 H         -1.4941707913       -0.2452646246        2.4723575503
 H         -1.9725239289       -1.5356928334        1.3649080356
 H         -3.1439034183       -0.3251032724        1.8691972921
 H         -1.8928808345        1.4461879451        0.7028903133
 H         -2.4410105598        0.1871129386       -0.3997949839
 H          0.7832799716        1.0967733893       -1.8148385923
 H         -0.0679976653        2.3089055317       -0.8301481512
 H         -0.9583052658        1.2661863569       -1.9400951645
 H          0.6651340519       -0.3133205528        1.7159887928
 H          0.4681468645        1.4402902491        1.5049595800
 H          2.1648821817        1.2566099491       -0.0573570386
 H         -0.8463519846       -1.3372168928       -1.5113526872
 H         -0.2115290283       -1.9014837681        0.0512824159
 H          1.8258864084       -1.0092325802       -0.7290280444
