  22
        -28.11216000
 C         -2.7317448935       -0.1620993153        0.5937240451
 C         -1.3564404371        0.1475451331        1.1744916873
 C         -0.1982694263        0.1632786373        0.1588404373
 C         -0.5099573815        1.0591119246       -1.0405369396
 C          1.0332038918        0.7227079657        0.8991259065
 O          2.1744206413        0.7139609249        0.0611449273
 C          0.1013608941       -1.2731911605       -0.3176532930
 O          1.0251160463       -1.3487482123       -1.3673610176
 H         -3.0365430209        0.6008307602       -0.1164484830
 H         -3.4652421184       -0.1890732590        1.3966684416
 H         -2.7433921625       -1.1267177384        0.0946334462
 H         -1.1255494772       -0.5892194243        1.9484381442
 H         -1.4008564207        1.1266823681        1.6588965757
 H          0.3882276603        1.1988398615       -1.6358100588
 H         -0.8628430702        2.0321777647       -0.7055720279
 H         -1.2656205930        0.6012784463       -1.6714968123
 H          1.2230596432        0.1135367638        1.7952978923
 H          0.8167661510        1.7500781732        1.2243176885
 H          2.9161154252        1.0955486143        0.5397366741
 H         -0.8120352623       -1.7370449984       -0.6971357013
 H          0.4514269531       -1.8645364750        0.5455712129
 H          1.7647661503       -0.7693541450       -1.1360773662
