  22
        -28.11274906
 C         -1.9082446105        0.2928017571        1.5847114532
 C         -1.1675003430       -0.5081414807        0.5206747002
 C         -0.2397859590        0.3043528930       -0.3985194463
 C         -1.0161559253        1.3610978958       -1.1870670818
 C          0.8641474315        1.0186602173        0.4010541968
 O          1.6227711288        0.0870192824        1.1512255645
 C          0.4138311705       -0.6657711732       -1.4080466469
 O          1.0380948339       -1.7737107095       -0.8219341109
 H         -2.5269042841        1.0686086938        1.1407731762
 H         -1.2165348055        0.7537010266        2.2848127670
 H         -2.5573173307       -0.3733055880        2.1486979420
 H         -1.8970047961       -1.0171363942       -0.1130410771
 H         -0.5674755876       -1.2757837329        1.0110600718
 H         -1.3863073492        2.1439488668       -0.5304926049
 H         -1.8615876764        0.9040284696       -1.6943204389
 H         -0.3755510711        1.8219977523       -1.9362869331
 H          0.4096360956        1.7624160192        1.0678870389
 H          1.5192918446        1.5539696898       -0.3028097220
 H          2.2812370231        0.5618873081        1.6667602036
 H          1.1363802727       -0.1016923151       -2.0218199496
 H         -0.3530341193       -1.0687688561       -2.0760013178
 H          1.5472014859       -1.4454330937       -0.0665830455
