  22
        -28.11299965
 C         -2.2157166240        0.2659978084        1.4889604198
 C         -1.5316458365       -0.4814745772        0.3491010022
 C         -0.2762377966        0.1968910847       -0.2287650674
 C         -0.6261712435        1.5008762085       -0.9463677926
 C          0.7510656320        0.4820834295        0.8919690399
 O          2.0378053875        0.7658010357        0.4113948781
 C          0.3654527285       -0.7521652836       -1.2689854882
 O          1.1205819340       -1.8000426854       -0.7028479376
 H         -3.0991304995       -0.2846002696        1.8054763855
 H         -2.5326464617        1.2564329288        1.1757716165
 H         -1.5546113014        0.3674401781        2.3449941182
 H         -2.2504498051       -0.6140575881       -0.4640316033
 H         -1.2605984879       -1.4777067187        0.7133830981
 H         -1.1632233852        2.1747083522       -0.2854270818
 H         -1.2424597302        1.3043558626       -1.8212977477
 H          0.2875982412        1.9969099312       -1.2643865529
 H          0.7843393411       -0.3725898887        1.5838507441
 H          0.4441550119        1.3674268905        1.4523971026
 H          2.3699622835       -0.0342843580       -0.0155214933
 H          1.0707379582       -0.1938048176       -1.8891531469
 H         -0.4181512935       -1.1528455804       -1.9267635102
 H          0.5335240198       -2.3655548673       -0.1899411174
