  22
        -28.11166923
 C         -1.6887451996        0.3471940967        1.7308388962
 C         -1.2528311305       -0.4432460016        0.5025026408
 C         -0.2733670118        0.2913053932       -0.4318950461
 C         -0.9848476059        1.4023077416       -1.2055102451
 C          0.9048807978        0.9037017398        0.3515757811
 O          1.4383875139        0.0690522198        1.3488720789
 C          0.2729706304       -0.7304235777       -1.4581593126
 O          1.1998623272       -1.6471624680       -0.9103181383
 H         -0.8388121215        0.5553543250        2.3739518544
 H         -2.4108852198       -0.2349484939        2.2989872707
 H         -2.1587076697        1.2869155161        1.4515840948
 H         -2.1342023070       -0.7138737119       -0.0842364607
 H         -0.7852266831       -1.3732290185        0.8334086494
 H         -1.7538485604        0.9810936505       -1.8490949288
 H         -0.2781988335        1.9498903038       -1.8260971907
 H         -1.4521835149        2.1066197031       -0.5236256637
 H          0.5811850224        1.8153819829        0.8599949511
 H          1.6943170070        1.1901903049       -0.3659839661
 H          1.4256573681       -0.8377617762        1.0128161388
 H          0.7225713003       -0.1969314174       -2.3043338638
 H         -0.5543752524       -1.3354571002       -1.8395042530
 H          2.0751641349       -1.2451688952       -0.9141592902
