  22
        -28.11317109
 C         -1.7340717253        0.3086243941        1.6936758041
 C         -1.2088977996       -0.4719224593        0.4952009631
 C         -0.2524964405        0.3106541674       -0.4224469785
 C         -0.9931592667        1.4093812781       -1.1871712640
 C          0.9018108371        0.9519757279        0.3754257556
 O          1.5117095301        0.0920619241        1.2976618788
 C          0.3310843814       -0.6693602595       -1.4586821537
 O          1.0924155022       -1.6765322641       -0.8175209030
 H         -2.2568325713        1.2105813982        1.3851956964
 H         -0.9183207391        0.5807731388        2.3565317789
 H         -2.4323036669       -0.3116662537        2.2515252397
 H         -2.0512068290       -0.8170856062       -0.1103056940
 H         -0.6797783148       -1.3527762718        0.8619564372
 H         -1.7908721484        0.9824557559       -1.7910836967
 H         -0.3102624429        1.9426998268       -1.8453938196
 H         -1.4276622763        2.1273308379       -0.4984059140
 H          0.5274712951        1.8015782361        0.9516819772
 H          1.6471794119        1.3356205791       -0.3415417464
 H          1.6801016418       -0.7410604064        0.8358522055
 H          0.9660575940       -0.1137086344       -2.1641881861
 H         -0.4930536860       -1.1245724578       -2.0258394128
 H          1.4246252570       -2.2875997553       -1.4816700218
