  22
        -28.11337395
 C         -2.4430384084       -0.3655148620        0.9946820658
 C         -1.1039441725        0.3504116950        1.1319888824
 C         -0.2120894441        0.3410754973       -0.1210550724
 C         -0.8166796924        1.1923199647       -1.2396748353
 C          1.1596978666        0.9447444315        0.2688134335
 O          1.9113780713        0.1218645231        1.1189434866
 C         -0.0010301551       -1.1105619934       -0.6056745004
 O          1.1514848983       -1.2809082308       -1.4024245086
 H         -3.0028629295       -0.2650015436        1.9217362533
 H         -2.3088097580       -1.4253958755        0.7965603931
 H         -3.0406916464        0.0647892851        0.1951291128
 H         -0.5359790443       -0.1051105679        1.9461229800
 H         -1.2900643248        1.3917048593        1.4053919957
 H         -1.7822332818        0.7986991035       -1.5471007464
 H         -0.1636804200        1.2130673361       -2.1113647553
 H         -0.9531304325        2.2166755626       -0.9009827114
 H          1.0015339373        1.8786482802        0.8138688696
 H          1.7316916776        1.1752081634       -0.6414941310
 H          2.1471825622       -0.6689401736        0.6175369332
 H         -0.8912654132       -1.4508917770       -1.1495921099
 H          0.1465910575       -1.7685120312        0.2544107971
 H          1.0427460933       -0.7735338573       -2.2135310453
