  22
        -28.11533916
 C         -2.3870283383       -0.4348976084        0.7822701312
 C         -0.9299689179       -0.0476804761        1.0107204077
 C         -0.1770164201        0.4328502671       -0.2447017280
 C         -0.9705449783        1.4881277067       -1.0157984785
 C          1.1583685747        1.0807486515        0.1865605019
 O          2.0148832668        0.2322476468        0.9201437224
 C          0.1248378657       -0.7572765294       -1.1806365321
 O          0.8327832584       -1.7974089181       -0.5621978559
 H         -2.4684833640       -1.2048957431        0.0203766909
 H         -2.9837164414        0.4221707682        0.4823879338
 H         -2.8044954082       -0.8300489618        1.7059614092
 H         -0.4088752572       -0.9253542127        1.4023349249
 H         -0.8941440299        0.7426857023        1.7671561762
 H         -1.8558563697        1.0511021899       -1.4677546956
 H         -0.3599112234        1.9118274538       -1.8102461089
 H         -1.2765305463        2.2939817608       -0.3524423109
 H          0.9476724937        1.9937637447        0.7611139963
 H          1.7311377991        1.3640848805       -0.7007984908
 H          1.5906982819        0.0169058555        1.7583190090
 H          0.6782982354       -0.3818412490       -2.0558469421
 H         -0.8082310328       -1.1994111550       -1.5383889648
 H          1.6203103050       -1.4055846703       -0.1535530027
