  22
        -28.11299620
 C         -2.6529793468       -0.3165614193        0.5058317712
 C         -1.2420913330       -0.1128151496        1.0484917153
 C         -0.1888358972        0.3065933592        0.0070626278
 C         -0.6455819228        1.5210524390       -0.8020709935
 C          1.1050323986        0.6788280045        0.7735928087
 O          2.2241715667        0.8364303418       -0.0554012537
 C          0.1274832750       -0.8411195241       -0.9756264527
 O          0.9323161014       -1.8602185001       -0.4245341409
 H         -2.6779513327       -1.0764352875       -0.2713237780
 H         -3.0493603771        0.6078725656        0.0965365024
 H         -3.3093865508       -0.6389307480        1.3112235797
 H         -0.9132424524       -1.0363401103        1.5354089230
 H         -1.2754618203        0.6581597215        1.8222993830
 H         -1.0550376470        2.2828226141       -0.1430138380
 H         -1.4001788663        1.2444789122       -1.5341053262
 H          0.2080755584        1.9437840554       -1.3268276471
 H          1.3055207036       -0.0798933906        1.5440193289
 H          0.9621378323        1.6402979584        1.2729193247
 H          2.4340538476       -0.0303104863       -0.4247608826
 H          0.6986681336       -0.4463001723       -1.8196509185
 H         -0.8055076218       -1.2596614351       -1.3731084306
 H          0.4445242680       -2.2869050575        0.2878324696
