  22
        -28.11286821
 C         -1.5908072647       -0.3373454805        1.8459278553
 C         -1.6365385500        0.3506095055        0.4835755079
 C         -0.3240610280        0.3608943761       -0.3223150993
 C         -0.4923811330        1.3128785454       -1.5111580295
 C          0.8706978874        0.8642829304        0.5220364525
 O          1.5623449075       -0.1454811435        1.2230281794
 C         -0.0172401622       -1.0517693740       -0.8693169781
 O          1.2472529998       -1.1498901887       -1.4674047263
 H         -1.2631005457       -1.3712703904        1.7623849785
 H         -2.5884807470       -0.3426703557        2.2801391474
 H         -0.9390760875        0.1931673857        2.5376665996
 H         -1.9481021642        1.3873469901        0.6339362602
 H         -2.4012855549       -0.1349294592       -0.1272761793
 H          0.3416054528        1.1934296493       -2.1983709812
 H         -0.5273970400        2.3470008718       -1.1747478340
 H         -1.4127457575        1.0909258353       -2.0462170186
 H          0.5267642211        1.6495531848        1.2088934359
 H          1.6197821660        1.3062997061       -0.1398641742
 H          0.9641883291       -0.5440996365        1.8639228021
 H         -0.7414131015       -1.2991382352       -1.6496495210
 H         -0.1139223852       -1.7980085824       -0.0683177453
 H          1.9023476972       -0.9848170014       -0.7758965645
