%nprocshared=4
%mem=8000mb
%chk=15.chk
%nprocshared=4
%mem=8000mb
#T wB97XD/def2svpp opt=tight freq int(grid=ultrafine) scf=(verytight,qc) Volume=tight

Monomer

0 1
C        2.268184   -0.635005   -0.671838
C        0.924867    0.014494   -1.002977
C        0.076550    0.499870    0.191785
C        0.748777    1.673044    0.912720
C       -1.295744    0.975105   -0.337562
O       -2.001204    0.004585   -1.057088
C       -0.144800   -0.624429    1.220729
O       -0.789641   -1.769168    0.690868
H        2.810649   -0.885706   -1.599076
H        2.153989   -1.575253   -0.102046
H        2.918780    0.031018   -0.079572
H        0.311943   -0.680139   -1.603329
H        1.098699    0.883511   -1.663969
H        0.941940    2.504279    0.212034
H        1.713439    1.381812    1.363189
H        0.108493    2.060779    1.725712
H       -1.145358    1.831125   -1.019468
H       -1.890792    1.349632    0.525399
H       -1.987629   -0.809829   -0.525118
H       -0.808001   -0.258982    2.022908
H        0.813910   -0.905612    1.699473
H       -0.180313   -2.228436    0.096477


