%chk=46.chk
%nprocshared=4
%mem=8000mb
#T wB97XD/def2svpp opt=(calcall,tight) freq int(grid=ultrafine) scf=(verytight,qc) Volume=tight

Monomer

0 1
C       -1.282772   -0.244526   -1.435123
C       -0.827733   -0.000005    0.000003
C       -1.282943    1.365051    0.505828
C       -1.282708   -1.120655    0.929286
Br        1.164186    0.000037    0.000003
H       -2.388243   -0.250530   -1.468917
H       -0.920536   -1.215668   -1.810563
H       -0.920928    0.547730   -2.110913
H       -2.388421    1.397015    0.517799
H       -0.921111    2.175827   -0.147646
H       -0.920900    1.554370    1.529734
H       -2.388174   -1.147191    0.951144
H       -0.920724   -0.960082    1.958102
H       -0.920538   -2.101956    0.581191


