  17
        -28.95742171
 C         -0.0508363811       -0.4343738605        1.5265401949
 C         -0.0019142756       -0.0163047766        0.0572495146
 C          1.1465564083       -0.7312917250       -0.6674500845
 Cl         0.9168494142       -2.4951151357       -0.7142627028
 C         -1.3171962850       -0.3742809733       -0.6479568509
 Cl        -2.7031313793        0.5175541721        0.0226758320
 C          0.2166552129        1.4979195323       -0.0644336006
 Cl         1.7894712992        2.0051233822        0.5951308987
 H         -0.1272743167       -1.5154453333        1.6066891704
 H         -0.9117009326        0.0137082148        2.0155110402
 H          0.8504174609       -0.1091220472        2.0392888091
 H          2.0885300404       -0.5506857868       -0.1510780436
 H          1.2248957707       -0.3976532546       -1.7028959154
 H         -1.5354747594       -1.4341847575       -0.5232888672
 H         -1.2716798477       -0.1305826304       -1.7101049537
 H         -0.5471680965        2.0352018668        0.4963285871
 H          0.1975333292        1.8143841879       -1.1080328650
