  9
        -11.39225826
 C         -1.2712536162        0.2439089197       -0.0005904633
 C          0.0159193291       -0.5646973723       -0.0488144821
 O          1.1789096390        0.2362221609        0.0402530370
 H         -2.1296810362       -0.4182878429       -0.0746640136
 H         -1.3083866605        0.9505691295       -0.8285438746
 H         -1.3403274283        0.7948735155        0.9363442305
 H          0.0693060930       -1.1287268719       -0.9888538866
 H          0.0386297528       -1.2831954215        0.7807474636
 H          0.9160920253        1.1577680501        0.1247452160
