  9
        -11.39433938
 C         -1.2750335632        0.2515133264        0.0157773951
 C          0.0145674621       -0.5610900404       -0.0327516611
 O          1.1686763122        0.2414655491        0.0563070866
 H         -2.1344450320       -0.4130573252        0.0070260536
 H         -1.3404318928        0.9159094464       -0.8450208289
 H         -1.3032464670        0.8528050901        0.9213885854
 H          0.0398712870       -1.1639726917       -0.9531706436
 H          0.0683760699       -1.2379611363        0.8228944292
 H          1.1391076563        0.9024349707       -0.6446561333
  9
        -11.39225826
 C         -1.2712536162        0.2439089197       -0.0005904633
 C          0.0159193291       -0.5646973723       -0.0488144821
 O          1.1789096390        0.2362221609        0.0402530370
 H         -2.1296810362       -0.4182878429       -0.0746640136
 H         -1.3083866605        0.9505691295       -0.8285438746
 H         -1.3403274283        0.7948735155        0.9363442305
 H          0.0693060930       -1.1287268719       -0.9888538866
 H          0.0386297528       -1.2831954215        0.7807474636
 H          0.9160920253        1.1577680501        0.1247452160
  9
        -11.39186743
 C         -1.2591157342        0.2891797981        0.0037291125
 C         -0.0038440775       -0.5674377200       -0.0491934425
 O          1.1209798047        0.2821883454        0.0434457848
 H         -2.1429927985       -0.3385262355       -0.0663341762
 H         -1.2543779265        0.9981504395       -0.8194258170
 H         -1.2848864569        0.8450978446        0.9367547366
 H          0.0224767678       -1.1333845813       -0.9922855591
 H         -0.0075711717       -1.2871947895        0.7828983135
 H          1.9234345423       -0.2476393678        0.0105262239
  9
        -11.39033604
 C         -1.2707285131        0.2778114230        0.0170723994
 C         -0.0011997572       -0.5643637938       -0.0343578233
 O          1.1407758803        0.2707942497        0.0573189545
 H         -1.2788185719        0.8690536849        0.9282347146
 H         -2.1458920333       -0.3660907450       -0.0003665330
 H         -1.3075722234        0.9542653984       -0.8332370864
 H          0.0147412002       -1.1521489937       -0.9581732226
 H          0.0129335792       -1.2623841303        0.8140510011
 H          1.7533240281        0.0735216792       -0.6544017743
