%nprocshared=4
%mem=8000mb
%chk=8.chk
%mem=8000mb
#T wB97XD/def2svpp opt=tight freq int(grid=ultrafine) scf=(verytight,qc)

comment

1 2
C       -1.210416   -0.236444   -0.021634
C        0.090918    0.551299    0.046907
O        1.230139   -0.258419   -0.108232
H       -2.085382    0.432814    0.050514
H       -1.276055   -0.963964    0.808637
H       -1.271281   -0.794996   -0.970950
H        0.132984    1.128689    0.994566
H        0.131017    1.284689   -0.774782
H        1.244594   -0.909006    0.606238


