  34
        -62.17981248
 C         -4.1991430997        0.8047799503       -0.3009983040
 C         -3.3939286396       -0.4924782890       -0.4236779596
 C         -3.8140872489       -1.2958397943       -1.6571383144
 C         -1.8911771247       -0.2356118426       -0.4772499773
 O         -1.5459326271        1.0154471100       -0.3963129878
 O         -1.1007956622       -1.1552971961       -0.5968196348
 C         -3.6735712998       -1.3128868594        0.8349466071
 O         -2.8725198614       -0.9523851241        1.8411692794
 O         -4.5267145543       -2.1460941257        0.9432681349
 H         -3.9004028966        1.3587193444        0.5851555520
 H         -5.2589387462        0.5698325829       -0.2363313614
 H         -4.0266775604        1.4304290920       -1.1725868602
 H         -3.7758496429       -0.6690540520       -2.5444018223
 H         -4.8267099079       -1.6650868615       -1.5189476418
 H         -3.1489406059       -2.1452815759       -1.7925168083
 H         -0.5460121882        1.1434043780       -0.4336005005
 H         -3.0745519926       -1.4650616389        2.6408215345
 C          3.7922487297        1.3589620827       -1.6355233351
 C          3.3885896353        0.5089378562       -0.4278690797
 C          4.1929589886       -0.7929692758       -0.3670055174
 C          3.6829731737        1.2805604326        0.8577183187
 O          2.9254518440        0.8484508518        1.8695229841
 O          4.5119255580        2.1360590592        0.9792337906
 C          1.8850374533        0.2561881461       -0.4769575250
 O          1.5399684368       -0.9974256207       -0.4960979858
 O          1.0938679583        1.1823717583       -0.5087220189
 H          4.8109668311        1.7130976619       -1.5028839976
 H          3.1335887977        2.2197638312       -1.7218725516
 H          3.7300220887        0.7698469796       -2.5469132178
 H          4.0095521738       -1.3826681343       -1.2610772271
 H          3.9032038091       -1.3815544083        0.4996008627
 H          5.2539255782       -0.5624544969       -0.3049878647
 H          3.1351826621        1.3322816076        2.6849314203
 H          0.5394965030       -1.1220072210       -0.5338413413
