  34
        -62.17990685
 C         -3.8913792798       -1.5116043322       -0.4532359149
 C         -3.4254400290       -0.0851863372       -0.1540003279
 C         -4.0069429263        0.9155811428       -1.1579997194
 C         -3.9312887506        0.3313152809        1.2273457131
 O         -3.1120007304        1.2127342324        1.8063448914
 O         -4.9533319408       -0.0403713568        1.7285641480
 C         -1.9009614560       -0.0368366527       -0.1103218901
 O         -1.3656836857        0.9414089363       -0.7793397307
 O         -1.2629968889       -0.8653551329        0.5151504274
 H         -4.9556340776       -1.5937460590       -0.2498271425
 H         -3.3583034791       -2.2171796786        0.1793770545
 H         -3.7026088620       -1.7575406534       -1.4950411744
 H         -5.0929374347        0.8696133511       -1.1276876449
 H         -3.6692084136        0.6700281358       -2.1614068847
 H         -3.6842971616        1.9265963153       -0.9236125476
 H         -3.4603764724        1.4908834911        2.6692902842
 H         -0.3598616685        0.9572800970       -0.7032167377
 C          4.0144660324       -1.0110120507        1.0951665516
 C          3.4274158633        0.0529037076        0.1621211808
 C          3.8904984037        1.4576367045        0.5547589481
 C          3.9266979733       -0.2687737982       -1.2463826340
 O          3.1249700800       -1.1405024489       -1.8638415631
 O          4.9305221677        0.1601003934       -1.7385836088
 C          1.9027696807        0.0074226426        0.1237858054
 O          1.3680076555       -0.9779610758        0.7825210792
 O          1.2641543797        0.8470250101       -0.4860976446
 H          5.1003014225       -0.9612642413        1.0643067898
 H          3.6925746748       -2.0047205145        0.7948550562
 H          3.6798275661       -0.8338019787        2.1138224159
 H          3.3578076390        2.2022539049       -0.0317809464
 H          4.9549089575        1.5545296108        0.3586843158
 H          3.6998572639        1.6346071086        1.6101470851
 H          3.4681767303       -1.3573472482       -2.7461559235
 H          0.3611745069       -0.9858829550        0.7168884077
