  34
        -62.18066773
 C         -3.9943142868        0.0463048792        1.3918280474
 C         -3.3834282302       -0.3827995244        0.0543154559
 C         -3.8840971209        0.4987340835       -1.0945016182
 C         -1.8630133528       -0.2757414949        0.1063964390
 O         -1.2752497638       -0.9123737403       -0.8697116257
 O         -1.2761742172        0.3693663910        0.9521417078
 C         -3.7664998859       -1.8354742449       -0.2049349470
 O         -3.0863553134       -2.6677269866        0.5895230367
 O         -4.5939656404       -2.2080153618       -0.9868594311
 H         -3.6836876641        1.0618720303        1.6227581703
 H         -3.6525141943       -0.6074024260        2.1904211186
 H         -5.0790342343        0.0068301298        1.3348999340
 H         -3.6642870403        1.5431428432       -0.8878223354
 H         -4.9577679447        0.3714660249       -1.2040072345
 H         -3.4072993581        0.2081659709       -2.0272746633
 H         -0.2719852730       -0.8215931020       -0.8409680385
 H         -3.3461287605       -3.5873294175        0.4195620853
 C          4.0522134752       -0.3443338976       -1.0961798720
 C          3.4287704811        0.4129492860        0.0813123612
 C          4.0574045271       -0.0088707719        1.4115046493
 C          3.6731382783        1.9013128814       -0.1519769835
 O          2.7658321530        2.4206454159       -0.9845917657
 O          4.5793930968        2.5355933476        0.3067006008
 C          1.9218642513        0.1825822142        0.1226735675
 O          1.3318684390        0.8490620833        1.0781055594
 O          1.3438165204       -0.5527096726       -0.6526870560
 H          5.1203661580       -0.1479995521       -1.1390979622
 H          3.5906925688       -0.0360387639       -2.0309730964
 H          3.8891125665       -1.4115022957       -0.9702858749
 H          3.9824178948       -1.0860331069        1.5370050305
 H          3.5538056608        0.4837743791        2.2391700142
 H          5.1043631970        0.2825038746        1.4208286244
 H          2.9477222246        3.3607409749       -1.1458068078
 H          0.3366798515        0.6972260854        1.0945021869
