  34
        -62.18021292
 C         -3.6282654280       -2.2826857608        0.4468474745
 C         -3.3388988690       -0.7777412690        0.4349990834
 C         -4.0405483837       -0.0657692534        1.5939981252
 C         -1.8362662201       -0.5252387156        0.5031704265
 O         -1.5306794114        0.7425684849        0.4528969455
 O         -1.0202358818       -1.4201492722        0.6029649027
 C         -3.8518783913       -0.2248814523       -0.8917205111
 O         -2.9661121134       -0.4126056528       -1.8746825040
 O         -4.9247625554        0.2781621651       -1.0649462111
 H         -3.2672286762       -2.7156973815        1.3760830357
 H         -3.1184365382       -2.7722677733       -0.3791389015
 H         -4.6982162175       -2.4548175340        0.3636396920
 H         -5.1165956510       -0.1394967527        1.4606122347
 H         -3.7653121600        0.9855365848        1.6121129264
 H         -3.7627786226       -0.5246657625        2.5394806770
 H         -0.5361371368        0.9010778636        0.5010009963
 H         -3.3150189672       -0.0803652692       -2.7176941100
 C          4.2593194375       -0.8915360621        0.3194831593
 C          3.4164272364        0.3832505156        0.4219911230
 C          3.8204345064        1.2237127796        1.6361320466
 C          3.6609811955        1.1861891640       -0.8549725983
 O          2.8766139935        0.7679713934       -1.8521119200
 O          4.4771501174        2.0529187285       -0.9832211428
 C          1.9227373329        0.0828525875        0.4949974865
 O          1.6165626171       -1.1812541155        0.4778061552
 O          1.1043436274        0.9819123383        0.5743594920
 H          4.1142642926       -1.5027397807        1.2061410835
 H          5.3108864209       -0.6264118774        0.2388867263
 H          3.9690135336       -1.4733769523       -0.5514916472
 H          3.8031509089        0.6151896677        2.5366712101
 H          3.1335775126        2.0579647278        1.7567613023
 H          4.8220683909        1.6170512936        1.4848944788
 H          3.0560293079        1.2712848588       -2.6629848151
 H          0.6218100659       -1.3377673326        0.5261099304
