  34
        -62.18259907
 C         -3.7467693233       -0.0008003227        1.0885193619
 C         -2.7128581598       -0.0007818333       -0.0337153369
 C         -3.3512101339        0.0001097868       -1.4186053348
 C         -1.7216201946        1.1613813822        0.1021620280
 O         -1.4138056502        1.4334789212        1.3522060188
 O         -1.2123812792        1.7111488067       -0.8462506698
 C         -1.7226116232       -1.1638419408        0.1012160724
 O         -1.4147924008       -1.4369628639        1.3510364873
 O         -1.2138601195       -1.7133135755       -0.8476536436
 H         -4.3746874724        0.8831365560        1.0078687459
 H         -3.2585630924       -0.0010586725        2.0578898984
 H         -4.3749215385       -0.8845310368        1.0075374034
 H         -3.9682011510        0.8860213213       -1.5422878184
 H         -3.9681655042       -0.8856646979       -1.5433907147
 H         -2.5805963454        0.0005976083       -2.1845215105
 H         -0.5960224051        1.9746917900        1.4051748965
 H         -0.5972977042       -1.9785412932        1.4037037247
 C          3.7478945388        0.0005214033       -1.0864699628
 C          2.7125830626        0.0007160670        0.0344876878
 C          3.3493305774       -0.0003211890        1.4201017746
 C          1.7227192095        1.1639475362       -0.1015376037
 O          1.4162061580        1.4371631651       -1.3516550935
 O          1.2131807856        1.7136265860        0.8468142421
 C          1.7216128772       -1.1615352517       -0.1026228271
 O          1.4131983344       -1.4317177545       -1.3529443408
 O          1.2130569280       -1.7129594855        0.8451886718
 H          4.3759433198       -0.8832320987       -1.0046927373
 H          4.3757288210        0.8844545905       -1.0051308510
 H          3.2607827382        0.0002695818       -2.0563886466
 H          3.9684200119        0.8839966067        1.5447230029
 H          3.9638362182       -0.8877215732        1.5454599823
 H          2.5777844160        0.0019485005        2.1850757999
 H          0.5987006140        1.9786018204       -1.4049690895
 H          0.5955888995       -1.9731292609       -1.4064657397
