  34
        -62.17989477
 C         -3.7778457390        1.4919260761        1.5720157667
 C         -3.3901989250        0.5209947219        0.4544604808
 C         -4.2094198885       -0.7715760779        0.5274516921
 C         -3.6938139244        1.1620990940       -0.8995780864
 O         -2.8836499186        0.6986297192       -1.8548696823
 O         -4.5709977528        1.9496401404       -1.1099918553
 C         -1.8885402914        0.2550485610        0.5030250601
 O         -1.5538419866       -1.0010767429        0.4692474556
 O         -1.0896172115        1.1726243629        0.5700753211
 H         -4.7855204956        1.8591990815        1.3974346616
 H         -3.0944879579        2.3375799954        1.5834328178
 H         -3.7378725956        0.9906026076        2.5356454843
 H         -5.2682130507       -0.5344137288        0.4553988451
 H         -4.0218670887       -1.2745358881        1.4724043645
 H         -3.9371398104       -1.4448770255       -0.2810971035
 H         -3.1044137924        1.0939725764       -2.7140770504
 H         -0.5541646678       -1.1353049062        0.4864760483
 C          4.2058279964        0.7583979064        0.5654721644
 C          3.3877412388       -0.5322651016        0.4562189490
 C          3.7689787940       -1.5300475058        1.5521797827
 C          1.8857408305       -0.2682271916        0.5040902900
 O          1.5509475344        0.9882048262        0.5190115710
 O          1.0866532483       -1.1877862987        0.5287391545
 C          3.6982491898       -1.1402015904       -0.9114118800
 O          2.9042825177       -0.6399647176       -1.8618433472
 O          4.5675371253       -1.9329626653       -1.1344807467
 H          4.0126749345        1.2380459295        1.5213325887
 H          3.9376200528        1.4510997820       -0.2279278238
 H          5.2651776815        0.5236567757        0.4936005844
 H          3.7208210356       -1.0529431012        2.5276601104
 H          4.7786383193       -1.8910836782        1.3760686405
 H          3.0874709510       -2.3771468578        1.5372652702
 H          0.5510861895        1.1215842727        0.5356716173
 H          3.1288633785       -1.0146767782       -2.7292366698
