  34
        -62.18066259
 C         -3.8586884536        1.3722932806        1.5924163237
 C         -3.3918820810        0.4908648311        0.4315263418
 C         -4.1208312573       -0.8571867033        0.4256714258
 C         -3.7004465657        1.1827642771       -0.8933214371
 O         -2.9026897630        0.7436009495       -1.8714060909
 O         -4.5693837992        1.9877910169       -1.0693469556
 C         -1.8837478519        0.2788532501        0.5133841122
 O         -1.2104751972        1.3967251242        0.4748137742
 O         -1.3752745049       -0.8201344188        0.6126293925
 H         -4.9056549952        1.6267016182        1.4501252174
 H         -3.2802270636        2.2919426454        1.6232996233
 H         -3.7416228015        0.8439861068        2.5352064322
 H         -5.1919828771       -0.6987552530        0.3314483230
 H         -3.9173360116       -1.3853869817        1.3535106258
 H         -3.7726682826       -1.4716928280       -0.4007752061
 H         -3.1254703991        1.1727348560       -2.7134335428
 H         -0.2154655924        1.2479654224        0.5266552704
 C          4.1216983260        0.8602643168        0.4129379153
 C          3.3928685732       -0.4877857899        0.4303688825
 C          3.8630402014       -1.3608735182        1.5961530172
 C          1.8848974516       -0.2752044004        0.5136879072
 O          1.2116702185       -1.3935363310        0.4907692035
 O          1.3764447949        0.8248914376        0.6000873239
 C          3.6986501107       -1.1888210288       -0.8903753806
 O          2.8940897852       -0.7617554562       -1.8682149517
 O          4.5708745371       -1.9908420818       -1.0638858043
 H          3.9204064715        1.3952072127        1.3374058570
 H          3.7714749447        1.4687553781       -0.4170978413
 H          5.1926193049        0.7011713683        0.3172690145
 H          4.9093034967       -1.6171235512        1.4519999300
 H          3.2839528570       -2.2797793184        1.6360449786
 H          3.7497654573       -0.8254306194        2.5353733745
 H          0.2167741779       -1.2441594388        0.5423547397
 H          3.1151971213       -1.1964122774       -2.7078561194
