  34
        -62.18022951
 C         -4.0323770879        0.1291888021       -1.6181803742
 C         -3.3362988015        0.7909070160       -0.4264588744
 C         -3.6247440747        2.2952216361       -0.3761545797
 C         -3.8562618961        0.1826653510        0.8730069267
 O         -2.9756754536        0.3285754295        1.8676559897
 O         -4.9300693501       -0.3269312841        1.0192554666
 C         -1.8335374843        0.5402189330       -0.4981153356
 O         -1.5288760884       -0.7288047420       -0.4931926419
 O         -1.0166968048        1.4376342607       -0.5622614640
 H         -5.1090420376        0.1962058352       -1.4862014998
 H         -3.7560806335       -0.9201499671       -1.6806155679
 H         -3.7511437679        0.6288466084       -2.5417163655
 H         -4.6951467269        2.4645297066       -0.2930020591
 H         -3.2570389099        2.7671121373       -1.2835828806
 H         -3.1203772343        2.7487826115        0.4734216790
 H         -3.3288240126       -0.0393476361        2.6939048152
 H         -0.5341290889       -0.8861786237       -0.5408567343
 C          3.8262640023       -1.2031280866       -1.6395336064
 C          3.4183190344       -0.3741387818       -0.4190019425
 C          4.2630810962        0.8979877884       -0.2996204648
 C          1.9253045109       -0.0703200823       -0.4929346964
 O          1.6198685724        1.1929139170       -0.4388262596
 O          1.1067609246       -0.9659038370       -0.6037852753
 C          3.6565099388       -1.1902239432        0.8509274169
 O          2.8622712861       -0.7871166017        1.8464749807
 O          4.4756859889       -2.0545929164        0.9757539632
 H          3.8155208371       -0.5852690597       -2.5337884369
 H          3.1373434368       -2.0337855314       -1.7724955387
 H          4.8258987421       -1.6010795245       -1.4872059791
 H          5.3139070680        0.6300293415       -0.2188169484
 H          3.9711544771        1.4707031916        0.5768292545
 H          4.1218404756        1.5192503673       -1.1799051604
 H          0.6254121502        1.3515746383       -0.4851626927
 H          3.0383369856       -1.2979449104        2.6533935219
