  34
        -62.18073677
 C         -3.8008582490        1.0760527201        1.7459769330
 C         -3.3984257482        0.4776460107        0.3947517836
 C         -4.1211468939       -0.8478564128        0.1347972751
 C         -3.7654719958        1.4440173576       -0.7265303344
 O         -3.1125760611        1.1504729576       -1.8551879191
 O         -4.5621555712        2.3345526107       -0.6442674618
 C         -1.8877285863        0.2699770605        0.3819429068
 O         -1.2215669810        1.3927491246        0.3711520248
 O         -1.3716879020       -0.8294337723        0.4085986414
 H         -4.8591222717        1.3225295495        1.7286033063
 H         -3.2387871733        1.9867651537        1.9366579400
 H         -3.6103987679        0.3622618253        2.5434831138
 H         -5.1970349551       -0.6955916958        0.1606063775
 H         -3.8425559516       -1.5691777030        0.8985220852
 H         -3.8376256843       -1.2489208094       -0.8350873378
 H         -3.3651004464        1.7638843541       -2.5638679117
 H         -0.2245518379        1.2494932531        0.3750761647
 C          4.1223039345        0.8480746152        0.1228668919
 C          3.3995562654       -0.4753541330        0.3932659225
 C          3.8064845320       -1.0660388623        1.7464818623
 C          1.8889031692       -0.2674550120        0.3824929933
 O          1.2226465292       -1.3902332496        0.3898781323
 O          1.3729365502        0.8322583510        0.3942853508
 C          3.7635052048       -1.4480216788       -0.7236934793
 O          3.0996722166       -1.1671421314       -1.8491545648
 O          4.5667303537       -2.3326138105       -0.6411688765
 H          3.8495405992        1.5732682559        0.8850240634
 H          3.8332057970        1.2451628928       -0.8469988939
 H          5.1981314087        0.6944455856        0.1426348287
 H          3.6221976367       -0.3463757145        2.5401497651
 H          4.8638606063       -1.3160559277        1.7255807187
 H          3.2423330165       -1.9735637133        1.9459639329
 H          0.2257059497       -1.2468233946        0.3934533233
 H          3.3505923090       -1.7838283083       -2.5555775366
