  34
        -62.18068819
 C         -4.1248673239       -0.8402126929       -0.0524888315
 C         -3.3995774731        0.4684092244       -0.3811276708
 C         -3.7750874172        0.9776474190       -1.7763396332
 C         -3.7874102019        1.5048860060        0.6678959068
 O         -3.1788210553        1.2683899584        1.8340067708
 O         -4.5644879689        2.4018092367        0.5054856351
 C         -1.8890845146        0.2647491633       -0.3342542132
 O         -1.2253343248        1.3889832729       -0.3313933186
 O         -1.3705905122       -0.8338122770       -0.3353266632
 H         -3.8236186669       -1.6091757503       -0.7589938946
 H         -5.2001821664       -0.6953043910       -0.1166377229
 H         -3.8662884727       -1.1742771838        0.9492467267
 H         -3.5624624503        0.2162656494       -2.5225987558
 H         -3.2144712975        1.8788181461       -2.0116754069
 H         -4.8348413272        1.2172168333       -1.7981702847
 H         -3.4422127415        1.9284200762        2.4951600332
 H         -0.2281680800        1.2481376296       -0.3188379244
 C          3.7783240357       -0.9778997504       -1.7772246552
 C          3.4001523614       -0.4683155392       -0.3829519648
 C          4.1252590658        0.8400514698       -0.0528194109
 C          1.8896115479       -0.2647879574       -0.3366305162
 O          1.2257730067       -1.3889611595       -0.3486328609
 O          1.3711193263        0.8336981435       -0.3243604046
 C          3.7867002258       -1.5044089006        0.6669929626
 O          3.1694887722       -1.2729494012        1.8296045268
 O          4.5695919464       -2.3969026738        0.5082388221
 H          3.5698010561       -0.2156976666       -2.5238086791
 H          3.2160190499       -1.8774830841       -2.0145689704
 H          4.8375436147       -1.2201123697       -1.7960563011
 H          3.8266686801        1.6089114932       -0.7605669681
 H          5.2006507093        0.6943565579       -0.1137595141
 H          3.8638969147        1.1748596447        0.9479288836
 H          0.2286552515       -1.2482297602       -0.3348162322
 H          3.4328625925       -1.9321667365        2.4915960259
