  34
        -62.17975896
 C         -3.9315384935        1.6373574713        0.5624652435
 C         -3.4332917592        0.3374693267       -0.0761051103
 C         -3.8908151014        0.2213124262       -1.5335789702
 C         -1.9115812258        0.3000927418        0.0074970529
 O         -1.4739531702        0.1789840227        1.2319817770
 O         -1.1929908198        0.4020142232       -0.9667636575
 C         -3.9910267592       -0.8590159388        0.6887089765
 O         -3.2916469702       -1.9681024902        0.4328602026
 O         -4.9542362476       -0.8407085521        1.4002908728
 H         -3.6039474772        2.4924665506       -0.0234497649
 H         -3.5503916473        1.7289965262        1.5763595624
 H         -5.0174068200        1.6235447891        0.6032165227
 H         -3.4778129080        1.0442010160       -2.1110389228
 H         -4.9759254772        0.2556537756       -1.5858185197
 H         -3.5390133809       -0.7116975378       -1.9666812361
 H         -0.4698331486        0.1625836424        1.2823681041
 H         -3.6639129545       -2.7256803113        0.9123009550
 C          3.8291325246        1.7192904523        0.4613034147
 C          3.4256624906        0.2507228371        0.2853623779
 C          3.8805975166       -0.5992775338        1.4724916442
 C          1.8981407949        0.2296869894        0.1901025938
 O          1.4559721187        0.3316358226       -1.0325594427
 O          1.1856545830        0.1689588161        1.1713085849
 C          3.9586705869       -0.3473529688       -1.0128251246
 O          4.3410533923        0.5698310020       -1.8994261504
 O          4.0214151259       -1.5271045611       -1.2286380618
 H          3.4069480617        2.1012346211        1.3880353204
 H          3.4694360580        2.3200793565       -0.3698050052
 H          4.9119106004        1.8018703253        0.5063561735
 H          3.3077476236       -0.3298276397        2.3556439320
 H          4.9377581790       -0.4368217685        1.6655017423
 H          3.7218470447       -1.6526256437        1.2550315845
 H          0.4481994706        0.3548277138       -1.0803998601
 H          4.6243959991        0.1416817243       -2.7228953058
