  34
        -62.18342633
 C         -3.5699771589       -0.1947296162        1.2535216193
 C         -2.7242604009       -0.0003186323       -0.0004335183
 C         -3.5684799962        0.1936332280       -1.2554521851
 C         -1.7163924909        1.1454537801        0.1561453337
 O         -1.3200103714        1.3194923896        1.3979577728
 O         -1.2643670584        1.7582533709       -0.7829207325
 C         -1.7154685262       -1.1454741347       -0.1556987448
 O         -1.3185478796       -1.3203965898       -1.3972465942
 O         -1.2633381561       -1.7571946253        0.7840201642
 H         -4.1286315314        0.7112605512        1.4721750155
 H         -2.9359147477       -0.4329498151        2.1025108113
 H         -4.2695144686       -1.0124259694        1.0980369261
 H         -4.1268300170       -0.7124573073       -1.4744721466
 H         -2.9334447896        0.4316072111       -2.1037833755
 H         -4.2682285172        1.0113634695       -1.1010957929
 H         -0.5090419978        1.8743457576        1.4372184956
 H         -0.5074092285       -1.8751101103       -1.4355712684
 C          3.5683984803       -0.1930397065       -1.2555651541
 C          2.7241868630        0.0003508065       -0.0004432189
 C          3.5698841059        0.1944854465        1.2535676894
 C          1.7154230615        1.1455591003       -0.1553146556
 O          1.3186241027        1.3212255138       -1.3967958294
 O          1.2631850714        1.7567583202        0.7847184046
 C          1.7164305756       -1.1455719724        0.1557291367
 O          1.3203430947       -1.3205826482        1.3975051386
 O          1.2643074424       -1.7578683394       -0.7836367677
 H          4.1254312541        0.7137111103       -1.4751956073
 H          2.9334617893       -0.4322920950       -2.1036197110
 H          4.2693132605       -1.0097227947       -1.1009650085
 H          4.1287713125       -0.7114401036        1.4718518086
 H          2.9357763041        0.4321920289        2.1026609418
 H          4.2691980834        1.0124315848        1.0983995355
 H          0.5074686129        1.8759692405       -1.4346847297
 H          0.5095240754       -1.8756710530        1.4363594938
