  9
  -23.515139090000002       0.16621209310477153      !hor
 O         -2.1529834109       -0.0548737421        1.0589064692
 C         -0.8044260352        0.0091653694        1.3741697328
 C          0.0885341522       -0.0088963764        0.1267384001
 Cl         1.7933508055        0.0835400862        0.6028457961
 Cl        -0.1796875895       -1.4826070523       -0.8202514682
 Cl        -0.2993380235        1.4030301586       -0.8946082623
 H         -2.3873710998        0.6910769939        0.4898468191
 H         -0.5823384455       -0.8743351209        1.9785768825
 H         -0.5542024059        0.9117123501        1.9516122831
  9
  -23.515139080000001       0.16621033426613685      !hor
 O         -1.4754643629       -0.6161776698        1.7897672192
 C         -1.2745732150        0.3991252133        0.8673303673
 C         -0.0554546844        0.1419293804       -0.0279790263
 Cl         1.4197227483       -0.0097439780        0.9422091734
 Cl        -0.3005149711       -1.3772559240       -0.9330401624
 Cl         0.1349151177        1.4703361974       -1.1858942101
 H         -1.5936079579       -1.4560522065        1.3250523349
 H         -1.1027892973        1.3135880352        1.4412904558
 H         -2.1462551528        0.5446316486        0.2119168401
  9
  -23.515139059999999       0.16620681664470277      !mtd11
 O         -1.5222538585        0.6022369142        1.7550943375
 C         -1.2415228208       -0.4459360359        0.8922835717
 C         -0.0443677482       -0.1472508986       -0.0196927311
 Cl         1.4127056662        0.1748898354        0.9363479791
 Cl         0.2511008838       -1.5217649219       -1.0988887216
 Cl        -0.4046338658        1.2932267254       -1.0106791442
 H         -1.7050291781        1.4020016361        1.2430623147
 H         -2.0980465588       -0.6962228999        0.2485841156
 H         -1.0004456103       -1.3096736369        1.5176002332
  9
  -23.515139059999999       0.16620681664470277      !mtd9
 O         -1.4775594282       -0.6166818523        1.7878627280
 C         -1.2741657826        0.3997522143        0.8672605153
 C         -0.0743930726        0.1265834837       -0.0491807260
 Cl         1.4032698917       -0.0130195164        0.9427128192
 Cl        -0.2974059611       -1.3846168358       -0.9472265162
 Cl         0.1307470167        1.4663002686       -1.1914103966
 H         -0.6839008874       -0.7253716390        2.3296405089
 H         -1.1099902100        1.3737957795        1.3519839934
 H         -2.1786887091        0.4532523437        0.2556804012
  9
  -23.515139049999998       0.16620505786190301      !mtd14
 O         -1.5245316644        0.6027939283        1.7528308861
 C         -1.2407193982       -0.4468397851        0.8926196794
 C         -0.0641801293       -0.1347833661       -0.0412959913
 Cl         1.3960794435        0.1769438278        0.9366692398
 Cl         0.2468103124       -1.5184393561       -1.1045103713
 Cl        -0.4024681910        1.2999417752       -1.0254507696
 H         -0.7421863583        0.8054597829        2.2839344630
 H         -2.1372368347       -0.6063903989        0.2876760115
 H         -1.0018404265       -1.3750395170        1.4330392671
  9
  -23.515139040000001       0.16620329909833934      !mtd5
 O         -2.1530823962       -0.0526600462        1.0588421311
 C         -0.8044558943        0.0080197079        1.3742983988
 C          0.0873838647        0.0231188236        0.1260268121
 Cl         1.7930329405        0.0905904450        0.6025577908
 Cl        -0.1879153006       -1.4710320301       -0.8115057472
 Cl        -0.2919880094        1.4147687455       -0.9040413468
 H         -2.3267777086       -0.8459959939        0.5338124984
 H         -0.4855032656       -0.8367133922        2.0030481199
 H         -0.6539420161        0.9400994288        1.9254519763
  9
  -23.510226740000000        9.1855013943531807E-004 !mtd14
 O         -1.4011739212       -0.6460788869        1.7510386708
 C         -1.2640802823        0.4184091555        0.8558691146
 C         -0.0619112263        0.1272607755       -0.0352106570
 Cl         1.4063743750       -0.0202754593        0.9410494911
 Cl        -0.3119257290       -1.3759104800       -0.9341451260
 Cl         0.1402137018        1.4627672298       -1.1863767128
 H         -2.1570133603       -0.4867900913        2.3260329822
 H         -1.0805131903        1.3700640556        1.3757023823
 H         -2.1479860713        0.5279042385        0.2106927511
  9
  -23.510226719999999        9.1853069953903887E-004 !md4
 O         -2.1135565948       -0.0542124433        0.9879188822
 C         -0.7736540872        0.0098223238        1.3806271034
 C          0.0832051654        0.0068431804        0.1198618881
 Cl         1.7939178701        0.0866879472        0.5843057686
 Cl        -0.1944448636       -1.4736501437       -0.8086946299
 Cl        -0.3061233750        1.4052619688       -0.8918412753
 H         -2.6771727274       -0.0553222642        1.7686879922
 H         -0.4838562819       -0.8573932663        1.9916833820
 H         -0.5541263644        0.9309865557        1.9398214975
  9
  -23.510226690000000        9.1850154046948075E-004 !mtd3
 O         -1.4499175786        0.6355050626        1.7145616919
 C         -1.2294136941       -0.4648843700        0.8816461544
 C         -0.0517505873       -0.1334996649       -0.0277882640
 Cl         1.3982446846        0.1841909879        0.9347693018
 Cl         0.2560063466       -1.5140163065       -1.0999363745
 Cl        -0.4162534391        1.2911667292       -1.0117146583
 H         -2.1885698543        0.4498847479        2.3038192267
 H         -2.1010691939       -0.6791753208        0.2462099365
 H         -0.9736342337       -1.3680366277        1.4546762209
