#T wB97XD/def2svpp opt=tight freq int(grid=ultrafine) scf=(verytight,qc)

Comment gs min

0 1
O          2.87820        0.21054        1.32027
C          2.34865       -0.09854        0.03436
C          2.87863        0.87951       -1.02769
C          2.33384        0.46978       -2.41131
O          0.90473        0.50222       -2.42419
C          2.44508        2.32279       -0.70081
O          1.03228        2.44958       -0.54635
C          4.40588        0.83299       -1.05488
O          4.88649       -0.44333       -1.43752
F          4.88306        1.67627       -2.00754
H          2.37066       -0.31120        1.96664
H          1.25571       -0.06525        0.10134
H          2.63123       -1.13050       -0.20211
H          2.66011       -0.53598       -2.69951
H          2.68134        1.16051       -3.18837
H          0.59860       -0.41418       -2.55546
H          2.75072        3.01208       -1.49603
H          2.90849        2.67649        0.22671
H          0.62282        1.96677       -1.29541
H          4.86147        1.11605       -0.10070
H          5.75017       -0.25182       -1.83972
