  15
        -17.72186400
 C          1.3567249415        0.8548729353        0.4125310170
 C          0.5914782944       -0.0874031658       -0.5123710030
 C          0.6526223144       -1.5217162858        0.0052042543
 C         -0.8661632373        0.3669775278       -0.6447946428
 O         -1.4895191790        0.3348007712        0.6216621209
 H          0.8885271678        0.8611681874        1.3929132479
 H          1.3511482562        1.8686028719        0.0177706557
 H          2.3888264597        0.5294587659        0.5171467005
 H          1.0345759800       -0.0469425983       -1.5142857320
 H          0.1468528008       -2.1988897403       -0.6796295628
 H          0.1649588794       -1.5793257520        0.9742865351
 H          1.6856489900       -1.8436761715        0.1110735424
 H         -1.3924029978       -0.2986784169       -1.3453987813
 H         -0.8930047443        1.3870057053       -1.0567425270
 H         -2.4022325760        0.6216803256        0.5262901618
