  15
        -17.72280055
 C          1.2795589055        0.9297327409       -0.1570474551
 C          0.4055376315       -0.3120911207       -0.3059886679
 C          1.1173708013       -1.5499554640        0.2305793745
 C         -0.9281397445       -0.1098312384        0.4168108649
 O         -1.6482170447        0.9180202666       -0.2305741102
 H          1.5516235753        1.0789522948        0.8861737484
 H          0.7369026120        1.8042428421       -0.5047781095
 H          2.1906054983        0.8267852636       -0.7414492022
 H          0.1794046261       -0.4547370189       -1.3672597568
 H          0.5089666159       -2.4405509545        0.0893571121
 H          1.3226545260       -1.4384711561        1.2934875560
 H          2.0619868136       -1.6932662562       -0.2879194012
 H         -0.7407156942        0.1543528649        1.4681986894
 H         -1.5032756388       -1.0477062960        0.3958170451
 H         -2.4804566797        1.0568426360        0.2315830804
