  15
        -17.72478501
 C          1.3093828751        0.9186285044       -0.1305556266
 C          0.4141345959       -0.3063846686       -0.3149337102
 C          1.1019092974       -1.5539353971        0.2318373067
 C         -0.9393108711       -0.1124631976        0.3843498353
 O         -1.7371946615        0.8903364190       -0.1959350824
 H          2.2766732239        0.7501847998       -0.5980344109
 H          1.4709341169        1.1156418674        0.9281590187
 H          0.8702019666        1.8036977111       -0.5879199226
 H          0.2206655901       -0.4436547062       -1.3842419856
 H          1.2876501012       -1.4465037152        1.2986371060
 H          2.0543022515       -1.7123601340       -0.2682995233
 H          0.4822555740       -2.4340522422        0.0782684983
 H         -0.7721511704        0.0981212459        1.4518183434
 H         -1.5296869967       -1.0285399207        0.3050501466
 H         -1.2611976431        1.7264801831       -0.1473459724
