  15
        -17.72139136
 C          1.2622832112        0.9507181822       -0.0848233087
 C          0.4250342288       -0.3167515069       -0.3199988148
 C          1.1152703126       -1.5575082325        0.2407542538
 C         -0.9648708140       -0.1704893081        0.3153161686
 O         -1.6581755970        0.9740944573       -0.1201125768
 H          0.7366461805        1.6311478372        0.5804286184
 H          1.4533336796        1.4781861058       -1.0158041051
 H          2.2202728699        0.7045889734        0.3652485764
 H          0.2845791904       -0.4618881323       -1.3986118309
 H          2.0803414522       -1.7028525453       -0.2387887573
 H          0.5100712409       -2.4455243294        0.0697519218
 H          1.2724366366       -1.4507824960        1.3117177442
 H         -0.8696466101       -0.0572625277        1.3981128273
 H         -1.5578596011       -1.0760554725        0.1143466185
 H         -1.7081128333        0.9550808081       -1.0821394415
