  15
        -17.72514534
 C          1.7522205978        0.8023198903        0.0049184925
 C          0.5024662511       -0.0031843991       -0.3365987996
 C          0.6380386764       -1.4491209177        0.1329411022
 C         -0.7370167435        0.6452447519        0.2940391846
 O         -1.9396819860        0.0109025674       -0.0703380457
 H          1.8977536128        0.8348424419        1.0823517708
 H          1.6671311680        1.8232671769       -0.3609897679
 H          2.6300137075        0.3468338150       -0.4470488573
 H          0.3682890170        0.0010092657       -1.4267338255
 H         -0.2920288641       -1.9868842428       -0.0351424746
 H          0.8618954576       -1.4781741483        1.1969768994
 H          1.4373729981       -1.9546003188       -0.4039016755
 H         -0.7717969880        1.7118971762        0.0242625560
 H         -0.6865036184        0.5676820898        1.3825999481
 H         -2.0108964195        0.0175533803       -1.0315049707
  15
        -17.72478501
 C          1.3093828751        0.9186285044       -0.1305556266
 C          0.4141345959       -0.3063846686       -0.3149337102
 C          1.1019092974       -1.5539353971        0.2318373067
 C         -0.9393108711       -0.1124631976        0.3843498353
 O         -1.7371946615        0.8903364190       -0.1959350824
 H          2.2766732239        0.7501847998       -0.5980344109
 H          1.4709341169        1.1156418674        0.9281590187
 H          0.8702019666        1.8036977111       -0.5879199226
 H          0.2206655901       -0.4436547062       -1.3842419856
 H          1.2876501012       -1.4465037152        1.2986371060
 H          2.0543022515       -1.7123601340       -0.2682995233
 H          0.4822555740       -2.4340522422        0.0782684983
 H         -0.7721511704        0.0981212459        1.4518183434
 H         -1.5296869967       -1.0285399207        0.3050501466
 H         -1.2611976431        1.7264801831       -0.1473459724
  15
        -17.72432165
 C          1.3590934834        0.8733046266        0.3938689124
 C          0.5876619515       -0.0832469438       -0.5113858549
 C          0.6904265239       -1.5184126173        0.0061719478
 C         -0.8799861272        0.3601482948       -0.6297187316
 O         -1.5681136229        0.3868862375        0.5960964378
 H          2.3835976632        0.5336983288        0.5263623894
 H          0.8798230466        0.9301086061        1.3685717428
 H          1.3770012639        1.8720697270       -0.0353497725
 H          1.0128937413       -0.0462336881       -1.5202361522
 H          0.0796034296       -2.1910636237       -0.5937220417
 H          0.3687686074       -1.5815133307        1.0446572788
 H          1.7213264308       -1.8608281437       -0.0418598049
 H         -1.4006314440       -0.2947763077       -1.3455310468
 H         -0.9252311623        1.3840493706       -1.0084029606
 H         -1.5451742319       -0.4990754986        0.9742285628
  15
        -17.72280055
 C          1.2795589055        0.9297327409       -0.1570474551
 C          0.4055376315       -0.3120911207       -0.3059886679
 C          1.1173708013       -1.5499554640        0.2305793745
 C         -0.9281397445       -0.1098312384        0.4168108649
 O         -1.6482170447        0.9180202666       -0.2305741102
 H          1.5516235753        1.0789522948        0.8861737484
 H          0.7369026120        1.8042428421       -0.5047781095
 H          2.1906054983        0.8267852636       -0.7414492022
 H          0.1794046261       -0.4547370189       -1.3672597568
 H          0.5089666159       -2.4405509545        0.0893571121
 H          1.3226545260       -1.4384711561        1.2934875560
 H          2.0619868136       -1.6932662562       -0.2879194012
 H         -0.7407156942        0.1543528649        1.4681986894
 H         -1.5032756388       -1.0477062960        0.3958170451
 H         -2.4804566797        1.0568426360        0.2315830804
  15
        -17.72186400
 C          1.3567249415        0.8548729353        0.4125310170
 C          0.5914782944       -0.0874031658       -0.5123710030
 C          0.6526223144       -1.5217162858        0.0052042543
 C         -0.8661632373        0.3669775278       -0.6447946428
 O         -1.4895191790        0.3348007712        0.6216621209
 H          0.8885271678        0.8611681874        1.3929132479
 H          1.3511482562        1.8686028719        0.0177706557
 H          2.3888264597        0.5294587659        0.5171467005
 H          1.0345759800       -0.0469425983       -1.5142857320
 H          0.1468528008       -2.1988897403       -0.6796295628
 H          0.1649588794       -1.5793257520        0.9742865351
 H          1.6856489900       -1.8436761715        0.1110735424
 H         -1.3924029978       -0.2986784169       -1.3453987813
 H         -0.8930047443        1.3870057053       -1.0567425270
 H         -2.4022325760        0.6216803256        0.5262901618
  15
        -17.72139136
 C          1.2622832112        0.9507181822       -0.0848233087
 C          0.4250342288       -0.3167515069       -0.3199988148
 C          1.1152703126       -1.5575082325        0.2407542538
 C         -0.9648708140       -0.1704893081        0.3153161686
 O         -1.6581755970        0.9740944573       -0.1201125768
 H          0.7366461805        1.6311478372        0.5804286184
 H          1.4533336796        1.4781861058       -1.0158041051
 H          2.2202728699        0.7045889734        0.3652485764
 H          0.2845791904       -0.4618881323       -1.3986118309
 H          2.0803414522       -1.7028525453       -0.2387887573
 H          0.5100712409       -2.4455243294        0.0697519218
 H          1.2724366366       -1.4507824960        1.3117177442
 H         -0.8696466101       -0.0572625277        1.3981128273
 H         -1.5578596011       -1.0760554725        0.1143466185
 H         -1.7081128333        0.9550808081       -1.0821394415
