%nprocshared=4
%mem=8000mb
%chk=monomer.chk
%nprocshared=4
%mem=8000mb
#T wB97XD/def2svpp opt=tight freq int(grid=ultrafine) scf=(verytight,qc) Volume=tight

Monomer

0 1
 C          1.7522205978        0.8023198903        0.0049184925
 C          0.5024662511       -0.0031843991       -0.3365987996
 C          0.6380386764       -1.4491209177        0.1329411022
 C         -0.7370167435        0.6452447519        0.2940391846
 O         -1.9396819860        0.0109025674       -0.0703380457
 H          1.8977536128        0.8348424419        1.0823517708
 H          1.6671311680        1.8232671769       -0.3609897679
 H          2.6300137075        0.3468338150       -0.4470488573
 H          0.3682890170        0.0010092657       -1.4267338255
 H         -0.2920288641       -1.9868842428       -0.0351424746
 H          0.8618954576       -1.4781741483        1.1969768994
 H          1.4373729981       -1.9546003188       -0.4039016755
 H         -0.7717969880        1.7118971762        0.0242625560
 H         -0.6865036184        0.5676820898        1.3825999481
 H         -2.0108964195        0.0175533803       -1.0315049707


