  32
        -48.45039202
 C          4.0000554253        0.3829896645        1.3790105990
 C          3.4408266002       -0.0150772012        0.0112827275
 C          3.8435329892        1.0273563462       -1.0551113478
 N          3.8863743983       -1.3602732027       -0.3050830140
 C          1.9147837838       -0.0089975207        0.0251910297
 O          1.3875753773        0.9748511990        0.6982921449
 O          1.2608061312       -0.8281146567       -0.5980209202
 H          3.7220041896       -0.3649238721        2.1160843441
 H          3.6124346256        1.3500190714        1.6837887675
 H          5.0846700899        0.4297751538        1.3263275350
 H          3.4623024401        2.0097340707       -0.7886733076
 H          3.4455389343        0.7465343727       -2.0293596495
 H          4.9286725344        1.0784130111       -1.1210789951
 H          4.8267684699       -1.3490724484       -0.6810773552
 H          3.2661296921       -1.7857637693       -0.9854393527
 H          0.3785686126        0.9722882387        0.6546004881
 C         -3.9380994375        0.4034426378        1.4013773409
 C         -3.4407988605       -0.0072437905        0.0146958734
 C         -4.0520500651       -1.3346483026       -0.4209727236
 N         -3.8332300737        1.0287589763       -0.9385904770
 C         -1.9080337826       -0.0599797230        0.0254695890
 O         -1.3808009942       -1.0775708989       -0.5994638265
 O         -1.2475510023        0.8465065106        0.5120062802
 H         -3.7664371940       -0.3945482513        2.1185593886
 H         -5.0010562878        0.6183097666        1.3476256466
 H         -3.4122801421        1.2942503515        1.7364197379
 H         -5.1322102026       -1.2279630583       -0.4585555691
 H         -3.7913897969       -2.1215823329        0.2807438979
 H         -3.6923402854       -1.6178559880       -1.4064979871
 H         -3.5115793699        0.7992501852       -1.8728243200
 H         -3.4363275477        1.9228403662       -0.6703350286
 H         -0.3741811350       -1.0359191094       -0.6269895691
