  32
        -48.45164881
 C          3.8977754590       -1.2054339682       -0.8267574805
 C          3.4380915719        0.0021999056       -0.0013071944
 C          3.8876576210       -0.1470110987        1.4567799004
 N          4.0299183363        1.2033117329       -0.5558338595
 C          1.9027531594        0.0097171867       -0.0120571351
 O          1.3795649277        1.0903108529       -0.5295484617
 O          1.2444421131       -0.9184682776        0.4257247207
 H          3.4758223283       -2.1189150860       -0.4177286918
 H          4.9819322237       -1.2606314606       -0.8018261509
 H          3.5778147424       -1.1019002750       -1.8616569680
 H          4.9717473273       -0.1986707488        1.4907671091
 H          3.4648524816       -1.0505110680        1.8865490862
 H          3.5607154959        0.7086224805        2.0441769078
 H          3.7357794701        2.0209255896       -0.0332180283
 H          3.7381848790        1.3344852808       -1.5180257292
 H          0.3711810876        1.0721335790       -0.5259870085
 C         -4.0185773571       -0.6326272996        1.2714577260
 C         -3.4395934030        0.0167642615        0.0134275973
 C         -3.8259115028       -0.8024754701       -1.2384541849
 N         -3.8800041547        1.3991217488       -0.0483380868
 C         -1.9135599657        0.0058271837        0.0403625960
 O         -1.3906807867       -1.0598510811        0.5759190514
 O         -1.2571339551        0.9031388468       -0.4619320863
 H         -3.6383431658       -1.6422810601        1.3902059358
 H         -5.1024983139       -0.6626180867        1.1968411896
 H         -3.7483407921       -0.0423264382        2.1422466214
 H         -4.9099560965       -0.8384394842       -1.3282985458
 H         -3.4473307759       -1.8183660007       -1.1599492793
 H         -3.4143283169       -0.3408567088       -2.1350267578
 H         -4.8253351539        1.4588915150       -0.4073278703
 H         -3.2665534508        1.9366481841       -0.6512088998
 H         -0.3803256359       -1.0545892624        0.5413272297
