  32
        -48.45293558
 C          3.8890583992        0.6776831994        1.2936224018
 C          3.4412957633       -0.0120219373       -0.0010364107
 C          3.9093794723        0.7894293595       -1.2207727012
 N          4.0272097903       -1.3364597333       -0.0534110307
 C          1.9058932004       -0.0167846538       -0.0059414223
 O          1.3770492302       -1.2113661706       -0.0037706112
 O          1.2530527943        1.0136176135       -0.0070675672
 H          3.5528258277        0.1126010747        2.1606917479
 H          3.4752401864        1.6807220863        1.3447411621
 H          4.9735821782        0.7288723189        1.3111668537
 H          3.5959694024        0.2990215805       -2.1402063599
 H          4.9933996810        0.8508657495       -1.2113737091
 H          3.4863437390        1.7894967419       -1.1941611781
 H          3.7411495793       -1.8215680721       -0.8966023159
 H          3.7235407424       -1.8934355315        0.7375809118
 H          0.3662610917       -1.1907834173        0.0002983114
 C         -3.8905009651       -0.6672993675        1.2993778434
 C         -3.4412785100        0.0120928579       -0.0001268623
 C         -3.9083778214       -0.7987616872       -1.2140987091
 N         -4.0268708098        1.3361972242       -0.0637144035
 C         -1.9058723873        0.0165363989       -0.0046756768
 O         -1.3769556437        1.2110125170       -0.0180156831
 O         -1.2531046562       -1.0138480127        0.0072000798
 H         -4.9750518245       -0.7182205047        1.3161736575
 H         -3.5550880833       -0.0954850296        2.1623440515
 H         -3.4768421958       -1.6699385246        1.3588312978
 H         -4.9925109890       -0.8584506633       -1.2060223661
 H         -3.4869263254       -1.7992231873       -1.1784901504
 H         -3.5926690260       -0.3163994081       -2.1370070420
 H         -3.7386860437        1.8149481622       -0.9098135482
 H         -3.7249398660        1.8990180781        0.7237993404
 H         -0.3661705052        1.1904605064       -0.0145501797
