  32
        -48.44980587
 C          3.9779130418       -1.3571323085       -0.4565140046
 C          3.4360551369       -0.0082149036        0.0164667471
 C          3.7696417416        0.2096261172        1.5101112532
 N          3.9553417122        1.0366550126       -0.8477366021
 C          1.9099701605       -0.0037724352       -0.0530043757
 O          1.3884546201        1.1884003925       -0.1595288815
 O          1.2487257683       -1.0206854009        0.0538338845
 H          5.0461582092       -1.4163726997       -0.2656274142
 H          3.8062770748       -1.4605036707       -1.5241095026
 H          3.4738023722       -2.1664161083        0.0629908892
 H          4.8493815293        0.2017624735        1.6474327261
 H          3.3352261584       -0.5817817987        2.1158833396
 H          3.3789773588        1.1679027245        1.8489648566
 H          4.9501167810        1.1551410633       -0.6935248861
 H          3.4916480760        1.9186448018       -0.6632943749
 H          0.3798049171        1.1666114065       -0.1753973870
 C         -3.7814503142        0.1124621759        1.4860480193
 C         -3.4360379583        0.0107688806       -0.0169349996
 C         -4.0463614630       -1.2560571450       -0.6170240554
 N         -3.8828700436        1.1598174425       -0.7847662482
 C         -1.9106455573       -0.0263598790       -0.0693438558
 O         -1.3918143631       -1.2144019366        0.0516513664
 O         -1.2507133687        0.9963831982       -0.1515264409
 H         -4.8622731355        0.1490422540        1.6086007420
 H         -3.3484407135        1.0161677061        1.9127106925
 H         -3.3975065170       -0.7501391340        2.0247581966
 H         -5.1279310055       -1.2197145063       -0.5152221830
 H         -3.6675758262       -2.1393543355       -0.1127043913
 H         -3.7999143332       -1.3132578830       -1.6731708824
 H         -3.2616601260        1.9468395993       -0.6314275340
 H         -4.8218922441        1.4279997389       -0.5152765906
 H         -0.3821924474       -1.1968682142        0.0503691369
