  32
        -48.45370654
 C          3.9077126332       -1.3104540553       -0.6826417802
 C          3.4429087714       -0.0100555936       -0.0209389574
 C          3.8932253341        0.0333307434        1.4458196138
 N          4.0294103536        1.1158440642       -0.7204788707
 C          1.9077967221        0.0041614647       -0.0089766149
 O          1.3838288190        1.1171168698       -0.4530521652
 O          1.2493498112       -0.9388184906        0.3951914984
 H          3.6018039908       -1.3354429358       -1.7265624090
 H          3.4735794360       -2.1640639159       -0.1703141884
 H          4.9909001168       -1.3676990888       -0.6357966890
 H          4.9783554721        0.0110739113        1.4823044401
 H          3.4926078558       -0.8195182845        1.9864153221
 H          3.5474780195        0.9485682317        1.9222689829
 H          3.7235654596        1.9905013242       -0.3087668187
 H          3.7465812706        1.1199466383       -1.6942310430
 H          0.3753004290        1.1130261971       -0.4138855177
 C         -3.9832242889       -0.3887801899        1.3676579662
 C         -3.4423624306        0.0196452518       -0.0048570106
 C         -3.8863071781       -0.9812134031       -1.0790022574
 N         -3.9584270905        1.3313678404       -0.3483280527
 C         -1.9084453811        0.0010013800        0.0348571698
 O         -1.3897333802       -1.1236675375        0.4411352722
 O         -1.2504735400        0.9720137162       -0.3058418393
 H         -5.0687985964       -0.3743777860        1.3372234714
 H         -3.6476656032        0.3093599299        2.1319764498
 H         -3.6389190084       -1.3855618989        1.6262945622
 H         -4.9703866750       -0.9694853296       -1.1433159320
 H         -3.5465836342       -1.9811921340       -0.8255787154
 H         -3.4783031862       -0.7029245681       -2.0487018602
 H         -3.5675710005        1.6410319402       -1.2320206684
 H         -3.6883104958        2.0119504548        0.3539103750
 H         -0.3798769119       -1.1073328719        0.4471734161
