  32
        -48.45055930
 C          3.8567610307       -0.3397487810        1.4084875603
 C          3.4399400792        0.0034306902       -0.0390996209
 C          4.0052430604        1.3659177251       -0.4446217401
 N          3.8654229231       -0.9901578588       -1.0088452125
 C          1.9140296723        0.0258149909       -0.0199013229
 O          1.3968638059        1.1378348052        0.4204127572
 O          1.2528319700       -0.9490402004       -0.3356654643
 H          3.4550025642       -1.3096636608        1.6986354241
 H          3.4886378786        0.4146607701        2.0990041126
 H          4.9425193634       -0.3756043815        1.4746362488
 H          3.6329464572        2.1452997478        0.2127076760
 H          3.7157754806        1.5893941139       -1.4674217263
 H          5.0904312744        1.3376310239       -0.3909843789
 H          3.2503949010       -1.7961288211       -0.9788466642
 H          4.8126641668       -1.2946467542       -0.8189915843
 H          0.3880531563        1.1040047410        0.4596583660
 C         -3.9800680376        1.1872674116        0.8176725891
 C         -3.4407852581        0.0088905245        0.0113740708
 C         -4.0405737742       -1.3115952635        0.4924508369
 N         -3.7990955371        0.1993016066       -1.3923235321
 C         -1.9100690410       -0.0325489397        0.0907872268
 O         -1.3906955776       -1.1426320266       -0.3713428632
 O         -1.2396034970        0.9190448050        0.4564635993
 H         -3.4867797428        2.1077834598        0.5160395603
 H         -3.8012362882        1.0341075353        1.8780900685
 H         -5.0468860608        1.2811207845        0.6396857366
 H         -5.1146744176       -1.2885556277        0.3332809225
 H         -3.8371572696       -1.4579948100        1.5498636157
 H         -3.6192569872       -2.1441508907       -0.0645315807
 H         -3.4458904484       -0.5653973106       -1.9570887329
 H         -3.4172232881        1.0694493227       -1.7465870176
 H         -0.3836332873       -1.1222436108       -0.3779379546
