%nprocshared=4
%mem=8000mb
%nprocshared=4
%mem=8000mb
#T wB97XD/def2svpp opt=tight freq int(grid=ultrafine) scf=(verytight,qc)

dimer

0 1
 C         -4.3085636238       -0.0775799956       -0.3095907391
 C         -2.7868350152       -0.0101283891       -0.1599301552
 C         -2.1409403018        0.0181151936       -1.5475984912
 C         -2.4233071143        1.2718008355        0.6174072147
 O         -1.0548819729        1.3780786656        0.9347976627
 C         -2.3400283069       -1.2564506661        0.6389026285
 O         -0.9770809092       -1.2899348252        0.9945112545
 H         -4.6770379996        0.8082077424       -0.8212838737
 H         -4.7942378677       -0.1382268476        0.6619401153
 H         -4.5906205467       -0.9529331545       -0.8898590159
 H         -2.6767156301        0.7145472139       -2.1887031343
 H         -2.1735641358       -0.9667133098       -2.0084670419
 H         -1.1091491228        0.3491606894       -1.4937580870
 H         -3.0163303644        1.3071140919        1.5435436726
 H         -2.6713546394        2.1519994729        0.0180620960
 H         -0.8099352583        0.5036412287        1.2945584441
 H         -2.6097650600       -2.1572536093        0.0735102583
 H         -2.8834662815       -1.2797860835        1.5897293547
 H         -0.4178151930       -1.4768098018        0.2142275483
 C          2.1396802937       -0.0184724515        1.5475306462
 C          2.7865906464        0.0103516671        0.1603273939
 C          4.3081713202        0.0785695157        0.3111393214
 C          2.4241878605       -1.2716539629       -0.6173965463
 O          1.0559584756       -1.3784848084       -0.9355846111
 C          2.3398083354        1.2565488433       -0.6387236486
 O          0.9771601871        1.2893798806       -0.9955433925
 H          2.1696827896        0.9666706865        2.0079122639
 H          2.6764838239       -0.7133842942        2.1894381659
 H          1.1086984570       -0.3519228794        1.4930047477
 H          4.6767563728       -0.8071036687        0.8229784505
 H          4.5892468967        0.9539321981        0.8918458182
 H          4.7945899687        0.1397351752       -0.6599772784
 H          2.6722491012       -2.1518157844       -0.0180092601
 H          3.0177479188       -1.3065807728       -1.5431914208
 H          0.8109817909       -0.5041830830       -1.2956187502
 H          2.8841383683        1.2803192730       -1.5890490568
 H          2.6085611933        2.1574078551       -0.0729172624
 H          0.4172366756        1.4761183870       -0.2156801679


