%nprocshared=4
%mem=8000mb
#T wB97XD/def2svpp opt=tight freq int(grid=ultrafine) scf=(verytight,qc)

dimer

0 1
 C          3.3131195292        0.8519007752       -1.6434495937
 C          2.6703881764        0.0837521415       -0.5002129838
 C          2.1139892426       -1.2754353698       -1.0055461127
 O          1.6671407656       -2.1389461139       -0.0006926441
 C          3.6899250871       -0.1497073475        0.6542238949
 O          3.1280134055       -0.6835545640        1.8023236768
 N          1.5786044341        0.8853319871        0.0746711171
 O          0.8199430261        0.3183518417        0.8409307397
 O          1.4906610816        2.0541403478       -0.2066829596
 H          2.5902068301        1.0135698265       -2.4400517042
 H          4.1551650975        0.2922531181       -2.0400747111
 H          3.6660009337        1.8215665276       -1.3016341271
 H          2.9384790065       -1.7895389131       -1.5091775881
 H          1.3292150213       -1.0761013087       -1.7444542500
 H          0.7488606591       -1.9169173448        0.2330983744
 H          4.1395891763        0.8074939787        0.9377728613
 H          4.4793223435       -0.8011184919        0.2488368655
 H          2.6383663223       -1.4877135433        1.5526610862
 C         -3.3963276683        0.8230646680       -1.4210873896
 C         -2.6313839431        0.3980999485       -0.1724905620
 C         -2.1204430947        1.6455938131        0.6135591022
 O         -1.5958646958        1.3378779791        1.8602225717
 C         -3.4812318804       -0.5015720009        0.7442734740
 O         -3.8851123332       -1.6882741406        0.1192740247
 N         -1.4298177777       -0.3347742010       -0.6037713096
 O         -1.1564707376       -1.3868191930       -0.0591492332
 O         -0.7419179213        0.1615853260       -1.4681528895
 H         -2.7286416442        1.2972185998       -2.1364210407
 H         -4.1798946051        1.5248029303       -1.1517101157
 H         -3.8578038770       -0.0501799879       -1.8788213285
 H         -2.9824675026        2.2938859968        0.7911229207
 H         -1.4016979099        2.1800706056       -0.0227530256
 H         -0.6935763725        0.9824051213        1.7624951749
 H         -4.3939667794        0.0431290279        0.9948462312
 H         -2.9285953390       -0.6973881388        1.6701260960
 H         -3.1262798350       -2.2859240188        0.0834566726

